version 2
run Net1-0-20230623-22:48:54-6998
attr configname Net1
attr datetime 20230623-22:48:54
attr experiment Net1
attr inifile omnetpp.ini
attr iterationvars ""
attr iterationvarsf ""
attr measurement ""
attr network Net
attr processid 6998
attr repetition 0
attr replication #0
attr resultdir results
attr runnumber 0
attr seedset 0
param **.source*.meanofMsgSize 2
param **.source*.avgInterArrivalTime 0.5s
param **.queue*.avgServiceTime 0.1s
param **.queue*.isRoundRobin false

vector 0 Net.queue1 qlen:vector ETV
attr interpolationmode sample-hold
attr title "queue length, vector"
vector 1 Net.queue1 queueingTime:vector ETV
attr interpolationmode none
attr title "queueing time at dequeue, vector"
attr unit s
vector 2 Net.queue1 responseTime:vector ETV
attr interpolationmode none
attr title "response time at end of service, vector"
attr unit s
vector 3 Net.sink1 lifetime:vector ETV
attr interpolationmode none
attr title "lifetime of arrived msg, vector"
attr unit s
vector 4 Net.sink1 arrivedMsg:vector ETV
attr interpolationmode none
attr title "number of arrived msg, vector"
0	0	0	0
0	20	1.716346906162	1
0	22	1.958147958636	2
0	23	2.681628255593	1
0	26	2.742596017448	2
0	27	2.848849375625	1
0	29	2.948623777428	0
0	32	3.162312443898	1
0	34	3.199155121631	2
0	36	3.244735634693	3
0	38	3.254948428893	4
0	39	3.728100003183	3
0	42	4.148692260612	4
0	44	4.224307687444	5
0	45	4.358133988918	4
0	47	4.422304906186	3
0	49	4.582828861892	2
0	51	4.744229069381	1
0	53	4.929907907269	0
0	64	6.861897313377	1
0	65	6.93869940482	0
0	92	9.629615344532	1
0	93	9.673128322006	0
0	128	14.476793008936	1
0	129	14.489892155083	0
0	136	16.161223102676	1
0	138	16.597181029489	2
0	139	16.609276364987	1
0	141	16.672070523086	0
0	148	16.951277096104	1
0	149	16.988463737008	0
0	156	17.587217381497	1
0	157	17.663524780198	0
0	164	19.087644616638	1
0	165	19.101241303728	0
0	176	22.140640059119	1
0	178	22.60487930757	2
0	179	22.912926447803	1
0	181	22.914945460618	0
0	188	23.443207064128	1
0	190	23.665916795088	2
0	192	24.249353558362	3
0	193	24.4444729805	2
0	195	24.604938293227	1
0	198	25.311472156863	2
0	199	25.356111828153	1
0	201	25.606941087744	0
0	204	25.727893914896	1
0	206	26.083517883505	2
0	208	26.132843037714	3
0	209	26.207913244496	2
0	211	26.225267340964	1
0	214	26.561790858251	2
0	216	26.7535709653	3
0	217	27.020044119567	2
0	220	27.303993920345	3
0	221	27.574242414868	2
0	224	27.933960825399	3
0	226	28.08771968728	4
0	227	28.126627156314	3
0	229	28.207106896294	2
0	231	28.209138142174	1
0	233	28.227163367372	0
0	236	28.52928420826	1
0	238	28.531637478506	2
0	239	28.756885689096	1
0	241	28.925502295526	0
0	264	31.733558831397	1
0	265	31.829499524798	0
0	276	33.301856076773	1
0	277	33.310696779747	0
0	300	37.849299847205	1
0	302	38.100455246335	2
0	303	38.406006468854	1
0	306	38.582682029082	2
0	307	38.592487044935	1
0	309	38.628379766522	0
0	336	41.957714505414	1
0	338	42.151279551489	2
0	339	42.469970456508	1
0	341	42.500429181559	0
0	348	43.571827323549	1
0	349	43.699377523886	0
0	352	43.722610280161	1
0	353	44.191646797264	0
0	360	44.38356094563	1
0	361	44.583048240838	0
0	368	45.090799751442	1
0	370	45.179462539015	2
0	372	45.245554393822	3
0	373	45.479900166036	2
0	375	45.680098815589	1
0	377	46.009442635854	0
0	384	46.262914342212	1
0	385	46.292092843133	0
0	396	49.155460785916	1
0	397	49.29900092271	0
0	416	51.737536925441	1
0	417	51.750999791264	0
0	440	55.523743686157	1
0	442	55.549585139055	2
0	443	55.572404969289	1
0	445	55.599571776323	0
0	452	56.305554494811	1
0	453	56.340436533834	0
0	480	58.551880235128	1
0	482	58.69863406109	2
0	483	58.917653686417	1
0	486	58.983582843743	2
0	487	59.051476431155	1
0	489	59.409033862251	0
0	492	60.047917891009	1
0	494	60.438905751447	2
0	495	60.533042246399	1
0	497	60.546965780614	0
0	524	65.102952228886	1
0	525	65.398891559788	0
0	560	73.134660495998	1
0	561	73.330408290422	0
0	604	77.665547071589	1
0	606	77.681010217369	2
0	607	77.686767838052	1
0	609	77.824864147619	0
0	624	78.915820524056	1
0	626	79.084897881478	2
0	627	79.219326292316	1
0	629	79.251032444547	0
0	636	80.055927632186	1
0	637	80.180868824176	0
0	648	81.591813676453	1
0	649	81.630592319117	0
0	660	83.195082739604	1
0	662	83.326871296022	2
0	663	83.723659023935	1
0	665	83.791439224141	0
0	680	86.410517898701	1
0	682	86.518566006998	2
0	683	86.795570739702	1
0	685	86.798235788668	0
0	688	87.260687248323	1
0	689	87.530167254821	0
0	696	88.577460371805	1
0	698	88.579488532466	2
0	699	88.672264409713	1
0	702	88.736487481498	2
0	703	88.764222673268	1
0	706	89.015991316493	2
0	707	89.109549349216	1
0	710	89.121257960595	2
0	711	89.160820813479	1
0	714	89.24826364977	2
0	716	89.508803060312	3
0	717	89.555584140235	2
0	720	89.929871211731	3
0	721	90.63826644173	2
0	724	90.707518391908	3
0	725	90.875305199791	2
0	727	90.919820133732	1
0	729	91.041374998435	0
0	740	91.763015453709	1
0	741	91.891537401873	0
0	748	93.296191968317	1
0	749	93.519172448477	0
0	756	94.415321974215	1
0	758	94.55608398545	2
0	759	94.594660454095	1
0	761	94.734147363221	0
0	768	95.067152134133	1
0	769	95.218446533515	0
0	772	95.224732148491	1
0	773	95.24803672084	0
0	816	99.970366805911	1
0	818	100.041993316602	2
0	819	100.256291679859	1
0	821	100.317883608237	0
0	824	100.797224117214	1
0	825	101.095618190872	0
0	828	101.425170859384	1
0	829	101.578143545598	0
0	832	101.74213692263	1
0	833	101.797607147338	0
0	840	102.193064744093	1
0	842	102.711687291144	2
0	844	102.729688706019	3
0	845	102.88680521743	2
0	848	103.011101306928	3
0	850	103.098198887115	4
0	851	103.130674725786	3
0	854	103.175841679867	4
0	855	103.245054263698	3
0	858	103.338427115111	4
0	859	103.400022739599	3
0	861	103.499761206173	2
0	863	103.531563609533	1
0	866	103.535455901084	2
0	868	103.63904849221	3
0	869	104.158129507442	2
0	871	104.244623318385	1
0	873	104.323107020344	0
0	884	106.324478777381	1
0	885	106.501076272246	0
0	928	114.382508626278	1
0	930	114.468277939964	2
0	931	114.550172911424	1
0	933	114.888219902376	0
0	940	116.959638198379	1
0	941	117.108283336289	0
0	944	117.213747925405	1
0	945	117.406461302022	0
0	952	118.743714344456	1
0	953	118.854217638739	0
0	988	123.985079362428	1
0	989	124.057380740053	0
0	1008	125.283849060047	1
0	1009	125.308004819123	0
0	1016	125.761814958222	1
0	1017	126.719395630672	0
0	1032	129.287503779707	1
0	1034	129.321270858146	2
0	1035	129.686209376374	1
0	1037	130.009941589658	0
0	1044	130.223892889966	1
0	1045	130.430939071381	0
0	1084	137.425963152822	1
0	1085	137.488623799016	0
0	1088	137.574649916776	1
0	1089	138.335226958282	0
0	1116	144.751563123656	1
0	1118	145.250212585739	2
0	1120	145.321464058564	3
0	1121	145.467188264395	2
0	1123	145.506404393357	1
0	1126	145.555903136378	2
0	1128	145.691681032219	3
0	1130	145.785963394345	4
0	1131	145.920842117311	3
0	1133	145.955974245465	2
0	1135	145.992282129483	1
0	1138	146.084238352783	2
0	1140	146.30107078047	3
0	1141	146.426527305754	2
0	1143	146.496321060637	1
0	1145	146.658419690073	0
0	1148	146.971521642766	1
0	1149	147.229904759636	0
0	1156	147.840692136391	1
0	1158	147.853156184255	2
0	1160	147.933727473668	3
0	1161	148.037461813045	2
0	1163	148.406677468354	1
0	1165	148.587023862269	0
0	1208	158.388191983812	1
0	1210	158.547612508018	2
0	1211	159.102446091121	1
0	1213	159.2565517751	0
0	1244	165.319470913546	1
0	1245	165.464119167433	0
0	1276	168.804268827946	1
0	1277	169.026148158133	0
0	1284	169.312233271441	1
0	1286	169.324649875314	2
0	1287	169.493253524745	1
0	1290	169.732946219738	2
0	1292	169.779823913543	3
0	1293	170.003748823454	2
0	1296	170.040213345978	3
0	1297	170.053787550891	2
0	1299	170.179631347932	1
0	1302	170.317347582685	2
0	1304	170.480952773348	3
0	1305	170.652889400701	2
0	1307	170.66518565739	1
0	1309	170.686128112076	0
0	1324	172.307450978733	1
0	1325	172.331856028078	0
0	1356	177.215169792154	1
0	1358	177.456696304286	2
0	1359	177.868718745373	1
0	1361	177.897304090235	0
0	1396	182.413728982495	1
0	1397	182.589609429022	0
0	1416	184.479060162394	1
0	1417	184.651931575228	0
0	1428	186.205776764459	1
0	1429	186.451571303389	0
0	1432	186.495921558451	1
0	1434	186.720086211757	2
0	1435	186.746242758712	1
0	1437	186.831508681771	0
0	1452	189.770902400161	1
0	1453	190.170667616449	0
0	1456	190.32916168694	1
0	1457	190.421866736204	0
0	1472	194.254629760848	1
0	1474	194.350608711824	2
0	1476	194.549348251786	3
0	1477	194.640892666721	2
0	1479	194.685612478388	1
0	1481	194.692141837953	0
0	1484	195.119610489268	1
0	1485	195.212076487022	0
0	1492	195.471637620673	1
0	1493	195.605368801641	0
0	1500	196.807626887763	1
0	1502	197.255969806056	2
0	1503	197.368490655223	1
0	1506	197.538597446712	2
0	1508	197.610209082453	3
0	1510	197.661116903442	4
0	1512	198.189337400533	5
0	1513	198.425436057592	4
0	1515	198.640714149476	3
0	1517	198.743803659477	2
0	1519	198.794430056185	1
0	1521	198.798258935962	0
0	1524	199.051533343267	1
0	1526	199.268383078467	2
0	1528	199.90738414305	3
0	1530	200.464817570085	4
0	1532	200.619915631717	5
0	1533	200.968299471802	4
0	1536	201.0350459551	5
0	1537	201.629919712943	4
0	1539	201.64196553972	3
0	1542	201.758199741178	4
0	1543	201.881595817289	3
0	1545	201.898719976111	2
0	1547	201.914699954154	1
0	1550	201.962558568295	2
0	1552	202.101029680959	3
0	1553	202.204564328049	2
0	1555	202.264955328747	1
0	1558	202.384094456807	2
0	1559	202.412582677257	1
0	1561	202.452129030845	0
0	1564	203.125681160825	1
0	1566	203.32228980432	2
0	1567	203.408494282527	1
0	1569	203.81891048894	0
0	1576	204.727364821268	1
0	1577	204.975021530081	0
0	1588	207.616488648479	1
0	1590	207.721270891342	2
0	1591	207.970960378987	1
0	1593	208.565246967824	0
0	1600	208.913682869542	1
0	1601	209.004141670083	0
0	1608	209.441300851469	1
0	1609	209.768249686738	0
0	1632	211.655631841393	1
0	1633	211.681308326404	0
0	1652	213.838582492041	1
0	1653	213.883994329517	0
0	1692	218.567364146245	1
0	1694	219.140403163777	2
0	1696	219.155215539925	3
0	1697	219.511620375699	2
0	1699	219.66699740922	1
0	1702	220.539265568769	2
0	1703	220.62022659566	1
0	1706	220.7664093573	2
0	1708	220.985836445821	3
0	1709	221.587744085472	2
0	1711	221.733768489523	1
0	1713	221.881029775777	0
0	1716	221.928893999241	1
0	1717	222.066038697764	0
0	1720	222.162470612471	1
0	1722	222.34610469622	2
0	1723	222.367096014134	1
0	1725	222.393847338814	0
0	1740	222.987955282337	1
0	1741	223.056004065949	0
0	1764	225.41428423016	1
0	1766	225.428974203801	2
0	1767	225.954572023847	1
0	1769	225.96462257622	0
0	1804	230.525913480561	1
0	1805	230.548937416044	0
0	1832	233.314848397729	1
0	1833	233.317233601241	0
0	1836	233.583159439215	1
0	1838	233.950937816687	2
0	1839	234.118541093293	1
0	1842	234.591335978221	2
0	1843	234.748186621865	1
0	1845	234.803689794396	0
0	1852	234.96617894209	1
0	1853	235.208070480441	0
0	1856	235.394262020792	1
0	1858	235.688283926631	2
0	1859	235.795295998113	1
0	1861	235.880122679097	0
0	1864	235.893097506672	1
0	1865	236.305308793086	0
0	1876	237.636215039425	1
0	1877	238.073458062205	0
0	1888	238.677067068445	1
0	1889	238.723549860198	0
0	1900	239.732912495683	1
0	1901	239.768434725912	0
0	1928	244.939003246871	1
0	1929	245.092242276626	0
0	1936	245.675521167352	1
0	1937	245.769419366437	0
0	1940	246.415308738018	1
0	1941	246.514394241255	0
0	1964	250.799926841828	1
0	1965	250.929380105403	0
0	1988	254.018639383443	1
0	1990	254.061076245349	2
0	1992	254.255393028465	3
0	1994	254.484530309993	4
0	1995	254.596582985714	3
0	1997	254.821122256191	2
0	1999	255.04779990825	1
0	2002	255.132258641956	2
0	2004	255.132531701936	3
0	2005	255.248439513501	2
0	2007	255.268421054673	1
0	2009	255.274987373191	0
0	2016	255.623702788766	1
0	2017	255.678979542858	0
0	2020	255.744992268204	1
0	2021	255.771167468686	0
0	2032	256.519657969892	1
0	2033	256.675923310428	0
0	2044	258.348318032543	1
0	2046	258.373622137202	2
0	2048	258.546905641767	3
0	2050	258.563308419129	4
0	2051	258.81150243195	3
0	2053	258.830491607696	2
0	2056	258.868343814767	3
0	2057	259.004673009842	2
0	2059	259.344697795695	1
0	2062	259.42056721726	2
0	2063	259.423645455179	1
0	2066	259.864919231066	2
0	2067	260.065488712074	1
0	2069	260.322243478507	0
0	2076	260.75952632279	1
0	2077	260.889872453075	0
0	2080	260.980492917226	1
0	2081	261.329625511008	0
0	2092	262.25849886321	1
0	2094	262.35590191147	2
0	2095	262.613000659563	1
0	2097	262.684361774888	0
0	2100	262.686259458179	1
0	2101	262.729718902821	0
0	2108	263.045401116782	1
0	2110	263.211627077574	2
0	2112	263.2677944179	3
0	2113	263.42220322961	2
0	2116	263.591829597742	3
0	2118	263.738093634204	4
0	2120	263.850297235969	5
0	2121	264.082640020101	4
0	2123	264.285758533808	3
0	2126	264.358153572497	4
0	2127	264.428780468634	3
0	2129	264.490341314133	2
0	2132	264.58060280699	3
0	2133	264.737157319481	2
0	2135	264.816142377899	1
0	2138	265.023211229316	2
0	2139	265.313720393971	1
0	2142	265.319298631305	2
0	2144	265.474199698585	3
0	2146	265.651299005628	4
0	2147	265.791195027895	3
0	2149	265.805326779142	2
0	2151	265.935355693345	1
0	2153	265.956397383668	0
0	2164	266.878838654428	1
0	2165	266.898999863926	0
0	2176	268.824862142054	1
0	2178	269.115952668622	2
0	2180	269.312693867106	3
0	2182	269.656191685059	4
0	2184	269.750680943418	5
0	2186	269.795138124591	6
0	2187	269.941821207935	5
0	2190	270.096543578593	6
0	2191	270.344984700803	5
0	2194	270.590617905176	6
0	2195	270.633063021804	5
0	2197	270.740870923511	4
0	2200	270.777227769354	5
0	2202	271.37469183604	6
0	2203	271.399301038147	5
0	2205	271.446814146733	4
0	2207	271.539024328559	3
0	2209	271.551268214984	2
0	2211	271.636960525133	1
0	2214	271.685890848213	2
0	2215	271.845729551446	1
0	2217	272.116093968659	0
0	2224	273.143340606112	1
0	2226	273.204932292256	2
0	2227	273.262749610499	1
0	2229	273.400671145573	0
0	2260	277.866460342394	1
0	2261	277.892397323662	0
0	2284	281.114581652882	1
0	2285	281.215822711955	0
0	2288	281.29162605293	1
0	2289	281.754342685488	0
0	2308	284.6516761579	1
0	2309	284.779723182932	0
0	2312	285.002011678979	1
0	2313	285.160144760088	0
0	2316	285.250746667691	1
0	2318	285.373481408761	2
0	2319	285.42036728766	1
0	2321	285.455800169843	0
0	2332	288.140318563091	1
0	2333	288.141352594976	0
0	2344	290.005246433981	1
0	2345	290.039964163552	0
0	2348	290.064354531499	1
0	2349	290.107611151539	0
0	2356	291.217087305376	1
0	2358	291.554938463256	2
0	2360	291.592489048688	3
0	2361	291.697815326201	2
0	2364	291.756820077523	3
0	2365	292.331834811486	2
0	2367	292.413133324999	1
0	2370	292.420481563767	2
0	2371	292.432552422877	1
0	2373	292.491272960007	0
0	2388	298.586900891251	1
0	2390	298.591766144217	2
0	2391	298.945029562193	1
0	2393	299.069505770072	0
0	2404	300.736651729371	1
0	2405	301.133820293441	0
0	2416	302.388279682868	1
0	2417	302.488939030031	0
0	2420	302.518681260982	1
0	2421	303.056716428752	0
0	2424	303.113265298235	1
0	2426	303.176118742618	2
0	2427	303.190220737185	1
0	2430	303.196899802017	2
0	2432	303.326704091856	3
0	2433	303.468949600454	2
0	2436	303.89197410692	3
0	2437	303.925419713451	2
0	2439	303.927442648576	1
0	2441	304.018661001721	0
0	2468	308.30019578242	1
0	2469	308.446035463918	0
0	2480	310.028268289698	1
0	2482	310.472410340777	2
0	2483	310.937612917462	1
0	2485	311.139681154601	0
0	2488	311.172080121987	1
0	2489	311.193475260269	0
0	2496	311.786471299473	1
0	2498	312.539632630604	2
0	2499	312.546617221557	1
0	2501	312.879909225466	0
0	2520	314.010671142933	1
0	2521	314.260877290611	0
0	2536	317.323376308735	1
0	2538	317.345883549149	2
0	2539	317.467205017328	1
0	2541	317.505291632764	0
0	2552	317.939241483165	1
0	2553	317.989019533219	0
0	2556	318.050519301655	1
0	2557	318.305792803013	0
0	2564	319.210705151599	1
0	2565	319.358061156028	0
0	2624	326.111301076987	1
0	2625	326.20589311426	0
0	2628	326.824961759323	1
0	2629	327.313695230624	0
0	2632	327.335041790002	1
0	2634	327.442162250905	2
0	2635	327.707026869722	1
0	2638	327.707721010463	2
0	2640	327.847329029605	3
0	2641	328.153858680755	2
0	2643	328.376268458026	1
0	2645	328.664699589796	0
0	2648	328.834412374765	1
0	2649	328.879926143054	0
0	2652	329.083998251455	1
0	2653	329.121291947312	0
0	2660	329.447576897266	1
0	2661	329.692666831924	0
0	2684	333.177997060823	1
0	2686	333.332555905926	2
0	2687	333.553018832709	1
0	2689	333.762445577464	0
0	2692	334.213112677739	1
0	2694	334.977956395066	2
0	2695	335.024538563551	1
0	2698	335.343889914823	2
0	2699	335.372457983343	1
0	2701	335.564290881362	0
0	2720	336.903605382105	1
0	2721	336.990136518075	0
0	2724	337.272742946565	1
0	2725	337.754881632809	0
0	2776	345.524146908928	1
0	2777	345.579918715539	0
0	2780	345.581384273624	1
0	2782	345.706396416408	2
0	2783	345.86663932281	1
0	2785	345.98539894957	0
0	2792	346.372904869524	1
0	2793	346.379128810689	0
0	2804	347.356725128806	1
0	2805	347.434631529223	0
0	2808	347.4435410657	1
0	2809	347.513263619783	0
0	2812	347.645896998345	1
0	2813	347.835406963537	0
0	2824	349.933372625937	1
0	2826	349.996683014784	2
0	2827	350.319386144166	1
0	2830	350.449338185677	2
0	2832	350.504010442445	3
0	2834	350.547266830677	4
0	2835	350.765824832687	3
0	2837	350.937386062188	2
0	2840	351.273126092427	3
0	2841	351.491698048282	2
0	2844	351.498794725751	3
0	2846	351.831825476709	4
0	2847	352.005674759485	3
0	2850	352.504416599325	4
0	2851	353.24349642212	3
0	2853	353.391563353713	2
0	2855	353.575680118332	1
0	2857	353.636922031785	0
0	2864	353.921956292617	1
0	2865	353.978510104195	0
0	2868	354.085633475599	1
0	2870	354.631946973582	2
0	2871	354.757174536005	1
0	2874	354.90695065563	2
0	2875	355.059463287574	1
0	2877	355.151070496445	0
0	2912	359.610467469913	1
0	2913	359.616133722893	0
0	2936	362.656820568813	1
0	2938	362.900488304244	2
0	2940	362.916530214509	3
0	2941	362.917483202101	2
0	2943	362.919367083413	1
0	2945	362.935073339542	0
0	2972	369.918216650205	1
0	2973	369.950885293352	0
0	3000	373.618892288146	1
0	3001	373.812457453863	0
0	3004	373.864541945781	1
0	3005	373.915186101048	0
0	3036	377.289973375588	1
0	3037	377.415456444546	0
0	3048	378.368960304012	1
0	3049	378.6231404661	0
0	3064	380.946008485658	1
0	3065	381.225356857406	0
0	3068	381.292603481449	1
0	3069	381.310596882942	0
0	3080	382.960294908229	1
0	3081	383.256048418023	0
0	3084	383.469192551672	1
0	3085	383.955896313199	0
0	3096	385.631603082491	1
0	3097	385.943232735169	0
0	3120	387.431410756759	1
0	3121	387.460596982124	0
0	3124	387.498640185702	1
0	3126	387.57390384618	2
0	3128	387.774587827677	3
0	3130	387.800789027079	4
0	3132	388.00197563272	5
0	3134	388.195046845439	6
0	3135	388.275389072608	5
0	3137	388.399263535296	4
0	3139	388.585796010751	3
0	3141	388.631442372154	2
0	3143	388.679692790609	1
0	3145	389.082361641776	0
0	3180	395.842982813001	1
0	3181	395.966636223551	0
0	3188	396.60360390201	1
0	3189	396.88516129372	0
0	3200	397.864135033013	1
0	3201	398.170377177202	0
0	3236	404.593542261532	1
0	3237	404.602148767213	0
0	3244	405.273845791252	1
0	3245	405.434028385987	0
0	3260	407.157396947879	1
0	3261	407.411573583099	0
0	3264	407.5213919263	1
0	3265	407.5635300327	0
0	3268	407.613910213692	1
0	3269	407.627245811842	0
0	3276	408.158119490632	1
0	3277	408.255920909896	0
0	3280	408.378061710044	1
0	3282	408.615793661166	2
0	3283	408.678775037555	1
0	3285	408.70225344192	0
0	3296	409.369641144731	1
0	3297	409.423842157175	0
0	3332	416.683860048129	1
0	3333	416.801244143634	0
0	3340	417.396608296527	1
0	3341	417.462335097997	0
0	3352	419.52823246179	1
0	3353	419.660262559061	0
0	3420	430.48133502037	1
0	3421	430.482870621941	0
0	3432	431.346601642587	1
0	3433	431.346610032264	0
0	3444	432.526510980142	1
0	3446	432.551894405517	2
0	3448	432.574879615047	3
0	3449	432.680639891571	2
0	3451	432.794816530486	1
0	3453	432.802458635252	0
0	3460	433.706459154953	1
0	3461	433.844886812896	0
0	3464	433.965570878832	1
0	3466	434.347332012287	2
0	3467	435.090100452786	1
0	3469	435.34317583212	0
0	3476	435.846753637783	1
0	3477	435.987765395113	0
0	3500	440.399559878337	1
0	3501	440.476637950574	0
0	3504	440.607198701736	1
0	3506	440.774855023193	2
0	3508	440.829755801496	3
0	3509	440.842263939398	2
0	3511	440.892413413312	1
0	3513	441.139334738541	0
0	3528	443.161540684352	1
0	3530	443.19451730497	2
0	3531	443.883379018082	1
0	3533	444.107713271614	0
0	3536	444.136661869636	1
0	3538	444.290575774463	2
0	3539	444.406034168203	1
0	3542	444.472633267244	2
0	3543	444.473612053384	1
0	3545	444.474506440997	0
0	3560	446.994401272247	1
0	3561	447.192983151777	0
0	3568	447.693691863708	1
0	3569	447.824081102375	0
0	3592	449.775226562792	1
0	3593	449.882459969587	0
0	3612	453.083919403515	1
0	3614	453.229474741759	2
0	3615	453.328728832296	1
0	3617	453.377592602418	0
0	3624	455.334428698397	1
0	3626	455.463646338418	2
0	3628	455.75965813951	3
0	3629	455.997990751276	2
0	3631	456.060074831253	1
0	3633	456.110235351045	0
0	3652	460.232506799056	1
0	3654	460.726557181445	2
0	3655	460.761072377993	1
0	3657	460.916716425345	0
0	3664	461.174132958969	1
0	3665	461.617006502931	0
0	3672	461.983991400452	1
0	3673	462.382414862365	0
0	3688	464.185193510364	1
0	3690	464.266658755046	2
0	3692	464.675202165401	3
0	3693	464.741663978017	2
0	3696	464.954841285989	3
0	3697	465.161278844641	2
0	3699	465.194590056263	1
0	3701	465.212784153837	0
0	3704	465.214138584166	1
0	3706	466.255667905048	2
0	3707	466.427719754681	1
0	3709	466.562767997704	0
0	3728	468.930182084342	1
0	3729	468.932640508996	0
0	3740	470.210417704029	1
0	3741	470.218045332699	0
0	3764	473.041973246318	1
0	3765	473.293613226319	0
0	3772	473.563757065963	1
0	3773	473.770344287572	0
0	3784	474.375763517397	1
0	3785	474.874829542562	0
0	3788	474.924078502066	1
0	3789	475.046183808175	0
0	3816	477.267240944283	1
0	3817	477.464165303813	0
0	3824	478.427449845403	1
0	3826	478.444883806462	2
0	3827	478.67882821612	1
0	3829	478.772383411372	0
0	3840	482.456366129038	1
0	3842	482.508357909959	2
0	3843	482.51924032108	1
0	3846	482.66543985962	2
0	3847	482.700042304122	1
0	3849	482.714290558885	0
0	3864	483.94206641204	1
0	3865	484.16688141514	0
0	3896	488.563204337311	1
0	3897	488.959542882832	0
0	3904	489.888678772496	1
0	3905	489.906251258098	0
0	3912	490.698194030066	1
0	3913	490.860891312118	0
0	3916	491.158375610931	1
0	3917	491.15873046643	0
0	3920	491.286343843968	1
0	3921	491.821217287034	0
0	3940	495.721551955666	1
0	3941	495.734778247613	0
0	3956	497.262645418282	1
0	3957	497.40574462418	0
0	3960	497.629614367628	1
0	3961	497.696950054165	0
0	3964	497.939334076504	1
0	3965	498.179526431399	0
0	3972	499.595946034491	1
0	3973	499.724415649971	0
0	3980	500.302709422767	1
0	3982	501.011026092025	2
0	3984	501.021979667914	3
0	3985	501.380232816314	2
0	3988	501.49172389799	3
0	3989	501.570878208444	2
0	3992	501.630268557665	3
0	3993	501.653324675215	2
0	3995	501.843166876208	1
0	3997	502.251491509073	0
0	4000	502.350412051093	1
0	4002	502.913540308648	2
0	4004	502.963518675862	3
0	4005	503.123368175364	2
0	4007	503.285204616625	1
0	4010	503.295256573231	2
0	4011	503.588748290523	1
0	4013	503.707606301667	0
0	4032	506.450971140161	1
0	4034	507.225263922556	2
0	4035	507.525971888304	1
0	4038	507.563291042809	2
0	4040	507.688477876489	3
0	4042	507.711108362498	4
0	4043	507.716534979235	3
0	4045	507.862517141312	2
0	4047	507.974182693347	1
0	4050	507.993272415364	2
0	4052	508.062691762548	3
0	4054	508.08378361459	4
0	4055	508.138780483059	3
0	4058	508.223744434149	4
0	4059	508.227041976292	3
0	4061	508.268873392614	2
0	4064	508.362631441149	3
0	4065	508.430982917621	2
0	4067	508.576854701324	1
0	4069	508.584820710783	0
0	4108	515.991523340134	1
0	4110	515.996631819106	2
0	4111	516.003515092268	1
0	4113	516.111069963997	0
0	4132	519.026815621436	1
0	4134	519.292739384032	2
0	4135	519.327405674526	1
0	4138	519.440102472272	2
0	4139	519.475499075887	1
0	4141	519.544871228246	0
0	4148	520.005534606807	1
0	4150	520.066935648154	2
0	4152	520.189425116685	3
0	4153	520.404016822423	2
0	4155	520.469463906931	1
0	4157	520.989789052078	0
0	4172	522.425644111889	1
0	4173	522.468684433532	0
0	4196	525.613968648126	1
0	4197	525.691524931944	0
0	4208	527.110136492894	1
0	4209	527.161874454219	0
0	4224	528.198890053049	1
0	4226	528.423106039727	2
0	4227	528.423670057564	1
0	4229	528.741954220223	0
0	4232	528.751327928194	1
0	4233	528.926302980815	0
0	4252	530.652782106044	1
0	4253	530.895715780268	0
0	4284	534.348021864586	1
0	4285	534.406215022754	0
0	4296	536.579064329414	1
0	4297	536.959163058514	0
0	4304	537.433866762214	1
0	4306	537.485393992944	2
0	4307	537.944165023003	1
0	4309	538.127433605299	0
0	4312	538.242055312766	1
0	4313	538.338596905693	0
0	4332	542.331970635218	1
0	4334	542.494870496549	2
0	4336	542.668669216733	3
0	4337	542.868859450426	2
0	4339	542.96348073017	1
0	4341	543.04041184635	0
0	4364	546.990499677272	1
0	4366	547.124415794338	2
0	4367	547.284373294436	1
0	4369	547.806009228141	0
0	4380	550.731754859169	1
0	4381	550.850423446387	0
0	4384	551.224408421588	1
0	4386	552.07656040416	2
0	4387	552.205793232195	1
0	4390	552.284776399049	2
0	4391	552.384276579041	1
0	4394	552.429031893122	2
0	4396	552.4591531746	3
0	4398	552.629802467157	4
0	4400	552.727598116663	5
0	4402	552.780992352828	6
0	4403	552.84410105681	5
0	4406	553.111332981254	6
0	4407	553.230028691658	5
0	4409	553.373684148536	4
0	4412	553.397428818569	5
0	4413	553.466173215785	4
0	4415	553.862017157316	3
0	4417	554.116008401679	2
0	4420	554.46662848573	3
0	4421	554.488007942312	2
0	4424	554.656136351172	3
0	4426	554.687871839138	4
0	4427	554.702670060225	3
0	4429	554.801407978668	2
0	4431	554.822154797011	1
0	4433	554.962985508985	0
0	4444	557.730832441445	1
0	4445	558.001383369002	0
0	4460	559.611654187225	1
0	4461	559.628193679653	0
0	4464	559.779236523957	1
0	4465	560.086386575961	0
0	4468	560.295829552193	1
0	4469	560.884706635915	0
0	4472	561.038014771757	1
0	4473	561.038649251047	0
0	4500	564.053813728566	1
0	4501	564.35224722149	0
0	4508	566.047879480453	1
0	4509	566.217369950949	0
0	4536	569.00248003421	1
0	4538	569.063119111788	2
0	4539	569.714862271565	1
0	4542	569.905192985528	2
0	4544	569.967986112903	3
0	4546	570.043926770286	4
0	4547	570.268177293028	3
0	4549	570.383193205763	2
0	4551	570.441876403519	1
0	4553	570.463659352153	0
0	4560	571.096208681787	1
0	4561	571.223477742849	0
0	4568	572.735014578557	1
0	4570	572.763515511011	2
0	4571	572.875934082122	1
0	4573	573.158111905547	0
0	4588	575.0536548627	1
0	4589	575.078249502291	0
0	4592	575.452263108178	1
0	4593	576.145394750891	0
0	4604	577.862962595341	1
0	4605	577.866077224501	0
0	4616	579.842330400394	1
0	4617	579.940497267019	0
0	4648	583.650506765384	1
0	4650	583.705359210531	2
0	4651	583.971882513287	1
0	4653	584.405358152754	0
0	4656	584.41360722932	1
0	4657	584.472880236535	0
0	4660	584.518216403585	1
0	4661	584.994044736189	0
0	4664	585.002710981625	1
0	4665	585.177453350246	0
0	4680	586.424273232748	1
0	4682	586.494441795168	2
0	4683	586.622475449889	1
0	4686	586.623913237565	2
0	4687	586.625273794429	1
0	4689	586.653392918351	0
0	4692	587.003655466632	1
0	4693	587.225561226387	0
0	4700	588.783437134736	1
0	4702	588.860511838266	2
0	4703	588.876794785703	1
0	4705	588.908005145295	0
0	4712	589.7524377093	1
0	4713	589.846424629847	0
0	4732	592.377346583287	1
0	4733	592.608811431803	0
0	4736	593.237252025158	1
0	4738	593.419147973659	2
0	4739	593.601697835191	1
0	4741	593.625284419617	0
0	4764	598.683673943592	1
0	4766	599.322023490191	2
0	4767	599.417713984561	1
0	4770	599.49891324746	2
0	4771	599.619231522627	1
0	4773	599.750882337931	0
0	4776	599.769867979954	1
0	4777	600.268469320566	0
0	4780	600.283869405767	1
0	4781	600.409753051695	0
0	4796	602.23039747454	1
0	4797	602.398500405897	0
0	4800	602.497989823614	1
0	4802	602.582479240895	2
0	4804	603.098700598035	3
0	4805	603.324860453636	2
0	4808	603.447050466636	3
0	4809	603.495520682715	2
0	4811	603.524358325191	1
0	4814	603.67516170815	2
0	4816	603.705337972825	3
0	4818	603.829530173151	4
0	4819	604.045478838098	3
0	4821	604.082667207537	2
0	4823	604.10054077654	1
0	4825	604.117912931751	0
0	4840	605.301583945853	1
0	4841	605.348321019334	0
0	4852	606.097592914122	1
0	4853	606.119711617455	0
0	4864	607.523023190482	1
0	4866	607.725338552883	2
0	4867	607.734347397861	1
0	4869	607.753513552243	0
0	4872	607.775501061193	1
0	4873	607.952310969904	0
0	4884	608.946224502224	1
0	4885	609.151791600475	0
0	4888	609.220213254284	1
0	4889	609.453810590329	0
0	4904	612.356827676986	1
0	4905	612.493468078198	0
0	4912	613.148693324651	1
0	4913	613.170096415546	0
0	4920	613.814166361987	1
0	4921	613.862248424983	0
0	4940	617.671555841587	1
0	4942	617.987062016948	2
0	4943	618.113030741346	1
0	4945	618.137453454618	0
0	4968	621.687045980985	1
0	4969	622.004829609468	0
0	4980	623.139591291102	1
0	4982	623.212932823847	2
0	4984	623.303934346629	3
0	4985	623.582967489809	2
0	4987	623.659207930813	1
0	4990	623.893663272635	2
0	4992	623.970969718563	3
0	4993	624.17313091511	2
0	4995	624.743525544329	1
0	4997	624.814088352125	0
0	5000	624.986213803156	1
0	5001	625.07078135788	0
0	5008	626.487926349472	1
0	5009	626.694228168796	0
0	5032	628.836298988123	1
0	5033	628.87353003089	0
0	5052	632.249112434954	1
0	5054	632.819408429326	2
0	5055	632.909911867428	1
0	5057	633.029435513226	0
0	5060	633.492841881351	1
0	5062	633.569988183049	2
0	5063	633.711418275029	1
0	5065	633.720388969056	0
0	5068	633.788895418978	1
0	5069	633.940794662783	0
0	5076	634.245686363822	1
0	5077	634.353238532419	0
0	5080	634.407056131883	1
0	5081	634.506762244617	0
0	5100	635.986469868768	1
0	5101	636.060692686473	0
0	5128	640.889623432056	1
0	5129	641.067474699676	0
0	5136	641.881344254059	1
0	5138	642.269105217315	2
0	5140	642.605602400802	3
0	5141	642.616293119728	2
0	5144	642.758914401494	3
0	5145	642.961877681253	2
0	5148	643.145408499367	3
0	5149	643.266892632659	2
0	5151	643.343274124438	1
0	5153	643.421223976031	0
0	5156	643.705956009987	1
0	5157	643.797656244403	0
0	5164	644.353342573009	1
0	5165	644.519025105922	0
0	5176	646.566663154072	1
0	5178	646.714955620335	2
0	5179	646.888088047154	1
0	5181	646.985780230728	0
0	5204	649.141544521842	1
0	5205	649.598840110164	0
0	5220	652.4149389743	1
0	5221	652.419803704276	0
0	5240	655.789076711835	1
0	5242	655.849927908961	2
0	5243	655.881846357617	1
0	5245	655.945748259828	0
0	5248	656.238434538176	1
0	5249	656.2455718275	0
0	5260	658.180109258286	1
0	5262	658.295061154801	2
0	5263	658.460214062124	1
0	5266	658.827065693607	2
0	5268	658.887476628916	3
0	5269	658.90235852477	2
0	5272	658.941309174579	3
0	5273	659.159343672192	2
0	5275	659.242341038479	1
0	5278	659.375880728995	2
0	5279	659.64002618167	1
0	5281	659.825184778986	0
0	5284	659.847407628523	1
0	5285	659.988923066705	0
0	5288	660.226589492378	1
0	5289	660.304771252	0
0	5292	660.351615641398	1
0	5293	660.587708889408	0
0	5308	662.73913103629	1
0	5309	662.7400338093	0
0	5312	662.797849818601	1
0	5313	662.799439050573	0
0	5316	662.953138166807	1
0	5317	662.960362419255	0
0	5360	669.347279390296	1
0	5362	669.565364798096	2
0	5363	669.663541445891	1
0	5365	669.970876077661	0
0	5372	670.841754338626	1
0	5373	670.924405993753	0
0	5380	672.703669142088	1
0	5381	672.810738786929	0
0	5472	686.854085401458	1
0	5473	686.968694898317	0
0	5476	687.028379556587	1
0	5477	687.097028690767	0
0	5516	694.185099449701	1
0	5517	694.403825419625	0
0	5564	702.224853346537	1
0	5565	702.375369435815	0
0	5592	705.014683184615	1
0	5594	705.438412469413	2
0	5595	705.812331141433	1
0	5598	706.098319683849	2
0	5600	706.185335097623	3
0	5602	706.882298611966	4
0	5604	706.926407386576	5
0	5606	707.016858605166	6
0	5607	707.270096625145	5
0	5609	707.394757914019	4
0	5612	707.507830349902	5
0	5613	707.68724307629	4
0	5615	707.869202629648	3
0	5618	708.418611059467	4
0	5620	708.495178767629	5
0	5622	708.645308394666	6
0	5623	708.691495995498	5
0	5625	708.805387897973	4
0	5627	708.805659005688	3
0	5630	708.924145956744	4
0	5632	709.069003181728	5
0	5633	709.33864977438	4
0	5635	709.61825708401	3
0	5637	709.735846866978	2
0	5639	710.01624095489	1
0	5642	710.115497184133	2
0	5644	710.387134059462	3
0	5645	710.791816159986	2
0	5647	710.869109025396	1
0	5649	711.015019287178	0
0	5660	714.624585156791	1
0	5661	714.761851790406	0
0	5668	715.184668303703	1
0	5669	715.194221687535	0
0	5704	717.419465594485	1
0	5705	717.54365879204	0
0	5728	718.973117360056	1
0	5729	719.063295232867	0
0	5756	723.171698120268	1
0	5757	723.545993339997	0
0	5760	723.641428240505	1
0	5762	723.734128841792	2
0	5763	723.76440406709	1
0	5766	723.873488387789	2
0	5767	723.915878826891	1
0	5769	723.930471131808	0
0	5784	725.255371358093	1
0	5786	725.278136655356	2
0	5787	725.330591951925	1
0	5790	725.336232329577	2
0	5791	725.352020331445	1
0	5794	725.457384416434	2
0	5796	725.619846630212	3
0	5797	725.795416180965	2
0	5799	725.947880745521	1
0	5801	725.991330050104	0
0	5816	728.026611551009	1
0	5817	728.06553625841	0
0	5824	728.776483517257	1
0	5825	728.838126300586	0
0	5832	730.389169930538	1
0	5833	730.462651287446	0
0	5840	731.321333119469	1
0	5841	731.498119955358	0
0	5848	732.410969189932	1
0	5850	732.613024358302	2
0	5851	733.580315598966	1
0	5853	733.924655141353	0
0	5856	733.935641819993	1
0	5858	734.637037387377	2
0	5859	734.809082625565	1
0	5861	734.897890099987	0
0	5884	737.350663149494	1
0	5885	737.367138666572	0
0	5904	740.035693192397	1
0	5906	740.039665556303	2
0	5907	740.053887135938	1
0	5909	740.151668623028	0
0	5924	743.229406967799	1
0	5925	744.331684271045	0
0	5960	747.79962049324	1
0	5961	748.074792523045	0
0	5988	752.276095803613	1
0	5990	752.375816038293	2
0	5991	752.396098956369	1
0	5994	752.530484871786	2
0	5996	752.664795452797	3
0	5997	752.777295369857	2
0	5999	753.04389363458	1
0	6001	753.144358056663	0
0	6012	753.637101235546	1
0	6013	753.713340342966	0
0	6036	758.211499182777	1
0	6038	758.374324626699	2
0	6039	758.498683345141	1
0	6041	758.536286673645	0
0	6044	758.539318835534	1
0	6045	758.663282102307	0
0	6068	761.913937419077	1
0	6069	761.93567607822	0
0	6112	770.674159667065	1
0	6114	770.892029384714	2
0	6115	770.934429994462	1
0	6117	771.220578317778	0
0	6140	776.538925251109	1
0	6142	776.712412366052	2
0	6144	776.714662442245	3
0	6146	776.86806381152	4
0	6147	777.063625817454	3
0	6149	777.082409392345	2
0	6151	777.146705532828	1
0	6153	777.256034356465	0
0	6168	779.052916178357	1
0	6170	779.372968838281	2
0	6172	779.459556481312	3
0	6173	779.507909009419	2
0	6175	779.649616194243	1
0	6177	779.801730907428	0
0	6188	782.038649198629	1
0	6189	782.081730758749	0
0	6196	783.302197582591	1
0	6197	783.433433803409	0
0	6208	785.06845422843	1
0	6209	785.329418061917	0
0	6212	785.378529373761	1
0	6213	785.435255271293	0
0	6248	789.584492111411	1
0	6249	789.815984986343	0
0	6260	791.183962332537	1
0	6261	791.793942174649	0
0	6276	792.401953373316	1
0	6277	792.59490900776	0
0	6288	795.181239857575	1
0	6289	795.211155228813	0
0	6304	797.766452359968	1
0	6305	798.02668062057	0
0	6332	803.311082640215	1
0	6333	803.687318511975	0
0	6336	803.728441026176	1
0	6337	804.037997414816	0
0	6356	806.6596357633	1
0	6357	807.039915493645	0
0	6368	809.118250601994	1
0	6370	809.133436158894	2
0	6372	809.320828516778	3
0	6373	809.379699243812	2
0	6376	809.437686903212	3
0	6377	809.569917576766	2
0	6380	809.584104598898	3
0	6381	809.88659449847	2
0	6384	809.93508386555	3
0	6385	810.030961963399	2
0	6387	810.107469802413	1
0	6390	810.141738465636	2
0	6391	810.195912592125	1
0	6393	810.255859188698	0
0	6412	812.224356981915	1
0	6413	812.443245388128	0
0	6420	813.308937667851	1
0	6421	813.418848543321	0
0	6424	813.525480875569	1
0	6425	813.726587175588	0
0	6428	813.77168781125	1
0	6429	813.99947357606	0
0	6468	820.086845594135	1
0	6469	820.244504132847	0
0	6472	820.292774377716	1
0	6473	820.315888561229	0
0	6476	820.374087573022	1
0	6477	820.615073308388	0
0	6488	821.664013667103	1
0	6490	821.836232446822	2
0	6492	822.415877278063	3
0	6493	822.816112294822	2
0	6496	822.876623800883	3
0	6497	823.15181746036	2
0	6499	823.294604623901	1
0	6501	823.322263200238	0
0	6528	826.535244853988	1
0	6529	826.59480943791	0
0	6536	826.798734491284	1
0	6537	826.800081001954	0
0	6552	827.138740293271	1
0	6554	827.353791696646	2
0	6556	827.437837331581	3
0	6558	827.499943102128	4
0	6559	827.557605841501	3
0	6561	827.642701973747	2
0	6564	827.783285520559	3
0	6566	827.832912496088	4
0	6567	827.858348663359	3
0	6569	827.870005528099	2
0	6572	828.015748070132	3
0	6573	828.05080513444	2
0	6575	828.065021109125	1
0	6577	828.134363622473	0
0	6584	828.64949474989	1
0	6586	828.748415537176	2
0	6587	829.239774690091	1
0	6589	829.555182804734	0
0	6596	833.931273854946	1
0	6597	834.046950125338	0
0	6620	837.913490338155	1
0	6621	837.987862758422	0
0	6692	848.284916876001	1
0	6693	848.37090480861	0
0	6724	853.24152116562	1
0	6725	853.311191689664	0
0	6740	857.850393475365	1
0	6741	858.322969151707	0
0	6764	861.391002932269	1
0	6765	861.581236026236	0
0	6772	862.154877092663	1
0	6773	862.158571317087	0
0	6780	863.423032868126	1
0	6781	863.661881795116	0
0	6800	865.118429539175	1
0	6801	865.254285519356	0
0	6852	872.329569233427	1
0	6853	872.375290161765	0
0	6864	874.129119799768	1
0	6865	874.390670938165	0
0	6868	874.45135558124	1
0	6869	874.50139062371	0
0	6876	874.835445863786	1
0	6878	874.955466956236	2
0	6879	874.984404375245	1
0	6881	875.080723133288	0
0	6884	875.121684899086	1
0	6885	875.199814957862	0
0	6888	875.232513511634	1
0	6890	875.277960605012	2
0	6891	875.669115388617	1
0	6893	875.723974346347	0
0	6920	878.14698015407	1
0	6921	878.340828122461	0
0	6944	882.560995184741	1
0	6945	883.217558356873	0
0	6968	887.720751715156	1
0	6969	887.769089541894	0
0	6988	889.237833773873	1
0	6989	889.353588455699	0
0	6992	889.411824073953	1
0	6993	889.76034310553	0
0	7000	891.934489623127	1
0	7002	892.027611439379	2
0	7003	892.094117304201	1
0	7006	892.095970545598	2
0	7007	892.775161970195	1
0	7009	892.80725397236	0
0	7012	893.459284204593	1
0	7014	893.463204641594	2
0	7015	893.570832736336	1
0	7017	893.658322541512	0
0	7036	895.649995597557	1
0	7038	895.671651834035	2
0	7039	896.012155727	1
0	7042	896.095244767404	2
0	7043	896.203138325791	1
0	7045	896.469502035303	0
0	7048	896.634201996224	1
0	7049	896.820028671669	0
0	7088	904.148001786026	1
0	7089	904.281260737175	0
0	7092	904.308258893651	1
0	7094	904.514179492956	2
0	7095	904.685777999399	1
0	7098	905.556970366712	2
0	7100	905.568814668781	3
0	7102	905.610665471508	4
0	7103	905.746339959262	3
0	7105	905.81737130646	2
0	7108	905.896073817723	3
0	7109	905.998977941927	2
0	7111	906.002853919968	1
0	7113	906.477446103148	0
0	7124	907.405050397074	1
0	7126	907.605860396905	2
0	7128	907.608217574133	3
0	7129	907.651172771994	2
0	7131	907.682327093415	1
0	7133	907.880874911513	0
0	7140	908.184252377367	1
0	7141	908.364127578004	0
0	7144	908.419956238562	1
0	7145	908.704338239387	0
0	7156	909.461085575674	1
0	7157	909.589850305163	0
0	7160	909.651837731095	1
0	7161	909.706614107286	0
0	7164	909.785314692284	1
0	7165	909.825829527883	0
0	7172	910.427024004043	1
0	7173	910.557762058668	0
0	7180	910.868583984082	1
0	7181	910.90724982535	0
0	7224	918.160353580827	1
0	7225	918.186669876252	0
0	7232	918.749722169367	1
0	7233	918.832950438614	0
0	7236	918.933782040892	1
0	7237	918.934040710669	0
0	7252	921.716619082052	1
0	7253	921.814407982542	0
0	7264	924.253615993041	1
0	7266	924.258806802019	2
0	7267	924.468872038368	1
0	7269	924.516924093974	0
0	7276	925.104259135393	1
0	7278	925.147312374351	2
0	7279	925.322714776975	1
0	7281	925.329949083677	0
0	7300	928.245535610433	1
0	7301	928.686777809498	0
0	7304	928.715105249966	1
0	7306	928.915885345765	2
0	7307	928.945505935265	1
0	7309	928.950813536289	0
0	7316	929.841656476862	1
0	7317	930.05846022748	0
0	7320	930.16690691542	1
0	7321	930.28273384606	0
0	7324	930.314693836039	1
0	7325	930.316603607939	0
0	7332	930.731251360003	1
0	7333	930.817034851826	0
0	7356	933.874388605933	1
0	7357	934.284276609453	0
0	7368	936.44146651301	1
0	7369	936.533773648634	0
0	7376	937.211819293724	1
0	7378	937.474373799693	2
0	7380	937.520847182101	3
0	7381	937.620891183742	2
0	7383	937.685664634926	1
0	7385	937.867386199509	0
0	7388	937.920744683782	1
0	7389	938.031331192292	0
0	7424	943.196079173817	1
0	7425	943.427392307934	0
0	7432	944.501471149914	1
0	7433	944.666123851271	0
0	7440	945.344701536373	1
0	7442	945.437307788977	2
0	7444	945.515619794025	3
0	7446	945.849778494259	4
0	7448	946.136985400199	5
0	7449	946.438959331918	4
0	7451	946.462931322775	3
0	7454	946.643766816774	4
0	7456	946.66443311375	5
0	7457	946.813690600958	4
0	7459	946.870823498129	3
0	7462	947.002953212845	4
0	7464	947.216851790642	5
0	7465	947.377117758505	4
0	7468	947.479152157202	5
0	7469	947.571697548455	4
0	7471	947.721888704328	3
0	7474	947.901645227539	4
0	7475	947.910658466175	3
0	7477	947.945944144389	2
0	7480	948.081519047552	3
0	7481	948.166136160527	2
0	7483	948.289782676836	1
0	7485	948.352133738426	0
0	7500	950.48077954116	1
0	7502	950.544437004853	2
0	7503	950.57513929552	1
0	7505	950.607131328708	0
0	7512	950.944174625444	1
0	7514	950.975804658233	2
0	7515	951.118674161786	1
0	7517	951.275463695774	0
0	7520	951.400860730131	1
0	7522	951.513917396865	2
0	7523	951.526874618895	1
0	7525	951.690129791605	0
0	7528	951.717559061348	1
0	7530	951.742195054448	2
0	7532	951.823323013283	3
0	7533	951.874030983174	2
0	7536	951.912888970242	3
0	7537	951.941061417704	2
0	7539	952.078639385807	1
0	7541	952.090003805263	0
0	7544	952.120270067444	1
0	7546	952.209145501029	2
0	7547	952.623900297965	1
0	7549	952.734981931194	0
0	7592	961.891274636078	1
0	7593	962.10118675568	0
0	7612	963.936993107091	1
0	7614	964.115574339843	2
0	7616	964.164217812788	3
0	7617	964.22010232002	2
0	7619	964.311220427197	1
0	7621	964.395754466591	0
0	7624	964.412272542829	1
0	7625	964.760140247652	0
0	7644	967.180135468399	1
0	7645	967.181993862977	0
0	7648	967.275154448972	1
0	7649	967.348848099348	0
0	7652	967.527924005923	1
0	7653	967.530776516365	0
0	7664	967.870328235079	1
0	7665	967.967303806692	0
0	7672	970.216450264035	1
0	7674	970.257726579773	2
0	7676	970.266896670283	3
0	7677	970.380440974522	2
0	7679	970.444953386703	1
0	7682	970.484289138102	2
0	7683	970.499984206871	1
0	7685	970.787426613919	0
0	7688	970.935788468654	1
0	7689	971.051431872538	0
0	7704	973.013220773212	1
0	7705	973.043995788425	0
0	7712	973.350578621992	1
0	7713	973.36444232475	0
0	7756	977.963665647265	1
0	7757	977.972897682285	0
0	7764	978.398819775767	1
0	7765	978.414830105317	0
0	7768	978.437332278346	1
0	7770	978.672206541702	2
0	7771	978.678228876743	1
0	7773	978.806767031631	0
0	7788	979.967731496271	1
0	7790	981.559984285273	2
0	7792	981.928736756499	3
0	7794	982.080817609064	4
0	7795	982.19092636651	3
0	7797	982.193712940397	2
0	7799	982.237462094733	1
0	7802	983.115463229126	2
0	7803	983.26536175974	1
0	7805	983.971423113629	0
0	7808	983.997255348023	1
0	7810	984.081879504315	2
0	7811	984.384185893761	1
0	7814	984.405587897178	2
0	7816	984.526871157366	3
0	7817	984.629534050643	2
0	7819	984.632321087153	1
0	7822	984.968257974069	2
0	7824	984.971386625848	3
0	7825	984.983062394861	2
0	7827	985.14491594413	1
0	7829	985.354291336913	0
0	7832	985.375572322185	1
0	7834	985.479294819047	2
0	7836	985.669406966479	3
0	7837	986.080555026217	2
0	7839	986.155629357689	1
0	7841	986.177902825985	0
0	7848	986.471401289981	1
0	7849	986.503931932684	0
0	7912	996.386192602637	1
0	7914	996.804784353154	2
0	7915	996.962104853081	1
0	7917	996.966512397761	0
0	7924	997.709283940831	1
0	7926	997.877255344488	2
0	7927	998.107451068509	1
0	7929	998.70846626383	0
0	7932	998.718686442595	1
0	7934	998.932479949666	2
0	7936	998.946022257749	3
0	7938	999.162240348327	4
0	7940	999.30116019921	5
0	7941	999.404816763767	4
0	7943	999.415121837365	3
0	7945	999.778504128235	2
0	7947	999.848066414067	1
0	7950	999.849324534555	2
0	7951	1000.167529534071	1
0	7953	1000.263930877958	0
0	7956	1000.301587789926	1
0	7957	1000.321971665585	0
0	7960	1000.368000087362	1
0	7962	1000.390637311937	2
0	7963	1000.551382799191	1
0	7965	1000.715219868162	0
0	7980	1004.214134578444	1
0	7982	1004.626702970094	2
0	7984	1004.772001642254	3
0	7985	1004.98242472395	2
0	7987	1004.983448024016	1
0	7990	1005.202039299497	2
0	7992	1005.32031305936	3
0	7994	1005.527804449291	4
0	7995	1005.551673001105	3
0	7998	1005.574032528902	4
0	8000	1006.078890114644	5
0	8001	1006.204472349453	4
0	8004	1006.363861016525	5
0	8005	1006.69053437919	4
0	8008	1006.721409745072	5
0	8009	1006.881034231331	4
0	8011	1006.8882941442	3
0	8014	1006.916202891973	4
0	8015	1007.123378263493	3
0	8017	1007.22298930435	2
0	8020	1007.258494789214	3
0	8021	1007.862001883892	2
0	8024	1007.89596355443	3
0	8025	1007.953569598567	2
0	8028	1008.309118933052	3
0	8029	1008.397257001504	2
0	8031	1008.594297699061	1
0	8033	1008.604854320003	0
0	8036	1009.173878281565	1
0	8038	1009.298738224512	2
0	8040	1009.348858575483	3
0	8041	1010.06665008593	2
0	8043	1010.071128670659	1
0	8045	1010.120490256263	0
0	8060	1012.73739581007	1
0	8062	1013.131469906966	2
0	8064	1013.4012226109	3
0	8066	1013.951869069228	4
0	8067	1014.031189465777	3
0	8070	1014.047955973166	4
0	8072	1014.050995462376	5
0	8073	1014.0654318264	4
0	8075	1014.120016159695	3
0	8077	1014.367999763204	2
0	8079	1014.630943582886	1
0	8081	1014.807880927566	0
0	8100	1015.704378335009	1
0	8102	1016.230629053041	2
0	8104	1016.955277197748	3
0	8105	1017.435158022831	2
0	8107	1017.48192470745	1
0	8109	1017.80194307766	0
0	8116	1018.480791209897	1
0	8118	1018.669760787474	2
0	8119	1018.787465826758	1
0	8121	1018.834134754963	0
0	8212	1031.866132075432	1
0	8213	1032.251379738519	0
0	8220	1032.283753724297	1
0	8222	1032.395986266315	2
0	8223	1032.45036325975	1
0	8225	1032.467956048553	0
0	8244	1035.696726635612	1
0	8246	1036.089435875966	2
0	8247	1036.486129188629	1
0	8249	1036.647701582667	0
0	8252	1036.687059408915	1
0	8254	1036.919296410344	2
0	8256	1037.132046285501	3
0	8258	1037.494730970782	4
0	8259	1037.57794978224	3
0	8261	1037.828379440103	2
0	8263	1037.917135738302	1
0	8265	1038.045520596748	0
0	8268	1038.073565537785	1
0	8270	1038.372748168302	2
0	8271	1038.587228058453	1
0	8274	1038.649501382346	2
0	8276	1038.853991210231	3
0	8277	1039.032966567094	2
0	8279	1039.377477726423	1
0	8282	1039.405534253387	2
0	8283	1039.41141704186	1
0	8286	1039.509110511643	2
0	8287	1039.815920779662	1
0	8290	1039.825990530907	2
0	8291	1040.033951599284	1
0	8294	1040.134901981967	2
0	8295	1040.190483805422	1
0	8297	1040.306817894152	0
0	8308	1041.395997647284	1
0	8310	1041.408712729374	2
0	8311	1041.528969262684	1
0	8313	1041.610851205203	0
0	8320	1042.31048992797	1
0	8322	1042.518328585145	2
0	8324	1042.670650622178	3
0	8325	1042.839274509183	2
0	8327	1042.977212688052	1
0	8330	1043.020715206755	2
0	8331	1043.081802397822	1
0	8333	1043.175027755003	0
0	8352	1046.263953156498	1
0	8354	1046.41366227694	2
0	8355	1046.42826829167	1
0	8358	1046.524085058692	2
0	8359	1047.025678021289	1
0	8361	1047.195697535233	0
0	8372	1047.884892086405	1
0	8374	1048.058210792663	2
0	8376	1048.641189304977	3
0	8377	1048.659970391987	2
0	8380	1048.765348940639	3
0	8381	1048.964368549482	2
0	8383	1048.97637348873	1
0	8385	1049.273285984949	0
0	8392	1050.288197738341	1
0	8394	1050.401702728571	2
0	8396	1051.037426757881	3
0	8397	1051.436843356345	2
0	8399	1051.43775268094	1
0	8401	1051.541722575631	0
0	8424	1053.83018832367	1
0	8425	1054.16090937186	0
0	8436	1054.775459397646	1
0	8437	1054.824216489981	0
0	8452	1058.287664591091	1
0	8453	1058.304705348845	0
0	8472	1061.593480147424	1
0	8473	1061.602781593633	0
0	8508	1064.965341869469	1
0	8509	1065.023204102083	0
0	8540	1068.862832190656	1
0	8541	1068.874895961492	0
0	8556	1069.911619388175	1
0	8557	1070.339643926165	0
0	8560	1070.386072804906	1
0	8561	1070.586440212518	0
0	8572	1072.521303571081	1
0	8573	1072.737063337545	0
0	8580	1073.324348777296	1
0	8581	1073.330116084833	0
0	8588	1074.065898335512	1
0	8589	1074.17949148784	0
0	8604	1076.203426584916	1
0	8605	1076.518383945356	0
0	8616	1077.248301051165	1
0	8617	1077.27240983485	0
0	8624	1078.68867842863	1
0	8625	1078.771251729069	0
0	8640	1081.385816555053	1
0	8642	1081.963181275552	2
0	8643	1082.09561282431	1
0	8645	1082.122415554589	0
0	8652	1082.753440861075	1
0	8653	1082.765290054885	0
0	8664	1085.65903295985	1
0	8665	1085.693391093746	0
0	8668	1086.302884610132	1
0	8669	1086.648693141346	0
0	8676	1087.464690083931	1
0	8677	1087.537057726877	0
0	8728	1095.072503190522	1
0	8729	1095.301986146621	0
0	8744	1097.540878572209	1
0	8746	1097.62339894917	2
0	8747	1097.689317338577	1
0	8749	1097.953729432428	0
0	8760	1098.531714383716	1
0	8762	1099.051642695368	2
0	8764	1099.102191531548	3
0	8765	1099.437947121267	2
0	8767	1099.462817796885	1
0	8769	1099.824181028454	0
0	8772	1100.022498555536	1
0	8773	1100.241964949846	0
0	8784	1101.155167550868	1
0	8785	1101.212048449175	0
0	8800	1103.453764005878	1
0	8801	1104.258332111837	0
0	8832	1108.121774859974	1
0	8833	1108.263386988358	0
0	8836	1108.346807097144	1
0	8837	1108.565659626496	0
0	8848	1110.436624843042	1
0	8849	1110.560352002804	0
0	8852	1110.740614882857	1
0	8853	1111.091793267195	0
0	8856	1111.228355135942	1
0	8857	1111.385660747719	0
0	8860	1111.546382540693	1
0	8861	1111.692724329089	0
0	8868	1111.835297598672	1
0	8869	1111.885859360461	0
0	8876	1112.127205841475	1
0	8878	1112.173100509974	2
0	8879	1112.262049861606	1
0	8882	1112.460734470547	2
0	8883	1112.557529324751	1
0	8885	1112.63344534213	0
0	8916	1116.709454428311	1
0	8918	1116.972996998733	2
0	8919	1117.012588399234	1
0	8921	1117.362123548249	0
0	8940	1119.94841553493	1
0	8942	1120.179030701047	2
0	8943	1120.325471826385	1
0	8945	1120.340162975437	0
0	8952	1120.618797979722	1
0	8954	1120.739841201372	2
0	8955	1120.815623283475	1
0	8957	1120.894388198233	0
0	8972	1121.833721164895	1
0	8974	1121.872614709878	2
0	8975	1121.933400444931	1
0	8977	1122.196382329557	0
0	8984	1122.483171137197	1
0	8985	1122.656436620833	0
0	8992	1124.867100615346	1
0	8993	1124.959472100909	0
0	9012	1127.63463220479	1
0	9014	1127.644534872234	2
0	9015	1128.237231258202	1
0	9018	1128.49188445041	2
0	9019	1128.698970964407	1
0	9021	1128.784388654408	0
0	9040	1131.030341747684	1
0	9041	1131.157139000496	0
0	9052	1131.734322124822	1
0	9053	1132.577159138399	0
0	9080	1137.644989321365	1
0	9081	1137.708018603337	0
0	9092	1139.1319587335	1
0	9093	1139.271667824923	0
0	9096	1139.490714110112	1
0	9097	1139.51320153969	0
0	9100	1139.652136472303	1
0	9102	1139.657813622402	2
0	9103	1139.713365755668	1
0	9105	1139.915154172676	0
0	9136	1144.344680057074	1
0	9138	1144.365171800234	2
0	9139	1144.450862616126	1
0	9141	1144.573312060442	0
0	9152	1145.365680316179	1
0	9154	1145.416189191654	2
0	9155	1145.753102657746	1
0	9157	1145.770574339075	0
0	9168	1146.347241105615	1
0	9170	1146.371521714095	2
0	9172	1146.466380614266	3
0	9173	1146.58341913868	2
0	9175	1146.656729935616	1
0	9177	1146.746251586423	0
0	9200	1148.908363753198	1
0	9201	1149.067675982136	0
0	9224	1151.327789993297	1
0	9226	1152.12445850253	2
0	9227	1152.315178780302	1
0	9229	1152.326333371956	0
0	9232	1152.604806757406	1
0	9233	1152.661263254482	0
0	9260	1156.185422016036	1
0	9261	1156.489337307106	0
0	9300	1160.791813293565	1
0	9301	1160.854501657427	0
0	9312	1161.489115059858	1
0	9313	1161.524611334642	0
0	9332	1163.855155853757	1
0	9333	1163.934400519951	0
0	9356	1167.255246629584	1
0	9358	1167.652197955673	2
0	9359	1167.653380437758	1
0	9361	1167.671028685986	0
0	9372	1168.157337481837	1
0	9373	1168.243722093837	0
0	9436	1176.854468573093	1
0	9437	1176.891777831366	0
0	9464	1179.879517269882	1
0	9465	1179.910549775071	0
0	9468	1180.225361743867	1
0	9470	1180.41329406193	2
0	9471	1180.629339291392	1
0	9474	1180.725330709208	2
0	9475	1180.740417532598	1
0	9478	1180.769747751323	2
0	9479	1180.892287284064	1
0	9481	1180.927486251111	0
0	9492	1183.480126119726	1
0	9494	1183.499820325545	2
0	9496	1183.545828177095	3
0	9497	1183.612697221668	2
0	9499	1183.773307840042	1
0	9501	1183.79811127924	0
0	9508	1184.181418546708	1
0	9509	1184.222515147832	0
0	9524	1188.264938986395	1
0	9525	1188.328535867118	0
0	9532	1188.688088201532	1
0	9534	1188.742743019193	2
0	9535	1188.924441172728	1
0	9537	1189.000658784335	0
0	9560	1195.157045691055	1
0	9561	1195.226261834828	0
0	9592	1199.698737563729	1
0	9594	1200.016670650005	2
0	9595	1200.339702128839	1
0	9598	1200.36070553807	2
0	9599	1200.367376409272	1
0	9601	1200.471107593346	0
0	9636	1205.081364542431	1
0	9637	1205.088278126878	0
0	9640	1205.281320699583	1
0	9642	1205.389863333036	2
0	9644	1205.913325980133	3
0	9645	1205.958252544836	2
0	9648	1206.055816872814	3
0	9649	1206.158234901553	2
0	9651	1206.525581915429	1
0	9654	1206.534443617866	2
0	9656	1206.652109976466	3
0	9657	1207.078006600001	2
0	9659	1207.411467505553	1
0	9662	1207.68796105112	2
0	9663	1207.815411696369	1
0	9666	1207.852189101219	2
0	9667	1207.886415258779	1
0	9670	1207.997581242005	2
0	9671	1208.000093412438	1
0	9673	1208.095998233908	0
0	9680	1208.694305761425	1
0	9682	1208.808708725397	2
0	9684	1208.995292469453	3
0	9685	1209.065502417255	2
0	9687	1209.138507548652	1
0	9689	1209.325655689162	0
0	9700	1210.611680392001	1
0	9701	1211.004598330959	0
0	9712	1211.228010679104	1
0	9713	1211.373577694311	0
0	9720	1211.621431840139	1
0	9721	1211.640515459413	0
0	9728	1212.960654585707	1
0	9729	1213.001356283312	0
0	9736	1213.102929809564	1
0	9737	1213.117184827743	0
0	9816	1227.352771175517	1
0	9817	1227.452936632611	0
0	9828	1228.429087750069	1
0	9829	1228.497539529783	0
0	9848	1232.450971707242	1
0	9850	1232.580386929299	2
0	9851	1232.652475781608	1
0	9853	1232.67543601752	0
0	9868	1233.806844176702	1
0	9869	1233.876611099732	0
0	9884	1236.081140394819	1
0	9886	1236.210838659199	2
0	9887	1236.294588122632	1
0	9889	1236.325783037256	0
0	9892	1236.552947003456	1
0	9894	1236.649483059005	2
0	9895	1236.772019384363	1
0	9897	1237.242891648663	0
0	9916	1240.379781633144	1
0	9917	1240.705455299213	0
0	9924	1241.075725290864	1
0	9925	1241.216842052567	0
0	9968	1248.269970598662	1
0	9969	1248.436554607019	0
0	10000	1253.666593042119	1
0	10002	1253.76414440461	2
0	10003	1253.882077372606	1
0	10006	1254.04126781659	2
0	10008	1254.120681365104	3
0	10009	1254.124351869109	2
0	10011	1254.21428997726	1
0	10014	1254.296136492064	2
0	10015	1254.310273294809	1
0	10018	1254.455522245222	2
0	10019	1254.469353179783	1
0	10021	1254.509711021009	0
0	10032	1256.991450375218	1
0	10033	1257.037387770923	0
0	10040	1257.496507280622	1
0	10041	1257.829141095196	0
0	10048	1259.251804395215	1
0	10049	1259.302067611237	0
0	10064	1262.647048934624	1
0	10065	1262.698737154815	0
0	10072	1263.662264433461	1
0	10073	1263.678643849397	0
0	10092	1265.983556043048	1
0	10093	1266.046749383925	0
0	10108	1267.096780854648	1
0	10109	1267.107793468213	0
0	10116	1268.521046173246	1
0	10117	1268.752248003227	0
0	10144	1272.350236735313	1
0	10145	1272.395200971385	0
0	10152	1272.698747192588	1
0	10154	1272.894951947327	2
0	10155	1272.994791343416	1
0	10157	1273.162032584037	0
0	10168	1273.550366280891	1
0	10169	1273.797774408826	0
0	10184	1274.984204323449	1
0	10185	1275.053912105074	0
0	10200	1276.050048502066	1
0	10201	1276.092662443397	0
0	10204	1276.225028826861	1
0	10206	1276.557314605407	2
0	10208	1276.627112224433	3
0	10210	1276.636491707334	4
0	10212	1276.699398833336	5
0	10213	1276.826098328265	4
0	10215	1276.911128139119	3
0	10218	1276.935537625365	4
0	10219	1277.034920880598	3
0	10221	1277.209888555672	2
0	10223	1277.294230350316	1
0	10225	1277.45598790174	0
0	10232	1277.752584247447	1
0	10233	1278.228643231003	0
0	10236	1278.391949477679	1
0	10237	1278.658238211199	0
0	10244	1279.802744427576	1
0	10245	1279.938956504638	0
0	10260	1281.6407643407	1
0	10261	1281.67406416731	0
0	10268	1282.620882490807	1
0	10269	1282.941904020529	0
0	10288	1286.848313182585	1
0	10289	1286.89531092257	0
0	10292	1287.190133988129	1
0	10293	1287.312368925902	0
0	10296	1287.316952444822	1
0	10297	1287.33283801481	0
0	10320	1288.779104999512	1
0	10321	1288.806207618392	0
0	10324	1288.889935323296	1
0	10326	1289.043653123802	2
0	10328	1289.103270039352	3
0	10329	1289.131232762584	2
0	10331	1289.159707697548	1
0	10334	1289.305020857519	2
0	10335	1289.501442957408	1
0	10337	1289.610465358288	0
0	10340	1289.833020766285	1
0	10341	1289.988624782068	0
0	10380	1295.166193331553	1
0	10381	1295.235869736652	0
0	10392	1296.714552994695	1
0	10394	1297.79226926284	2
0	10395	1297.851802446716	1
0	10397	1297.914946286717	0
0	10400	1298.139619766854	1
0	10401	1298.210846103378	0
0	10436	1303.192821340166	1
0	10437	1303.454034035138	0
0	10460	1309.563452261327	1
0	10461	1309.911064578554	0
0	10464	1309.912463543682	1
0	10465	1310.193650688771	0
0	10468	1310.296264963419	1
0	10469	1310.424867329872	0
0	10472	1310.769162913361	1
0	10473	1311.140792705147	0
0	10476	1311.22281970744	1
0	10477	1311.399101550137	0
0	10480	1311.451231651226	1
0	10481	1311.522608728693	0
0	10532	1319.35249707189	1
0	10534	1319.359407631625	2
0	10535	1319.387392157727	1
0	10537	1319.395234838693	0
0	10580	1326.565670603534	1
0	10581	1326.612795683661	0
0	10596	1328.801855062327	1
0	10597	1328.809785948217	0
0	10604	1329.881099739863	1
0	10605	1329.883590799301	0
0	10608	1329.903943113305	1
0	10609	1330.166064575017	0
0	10640	1336.033014292569	1
0	10642	1336.049458218498	2
0	10644	1336.107882426039	3
0	10646	1336.194326469992	4
0	10648	1336.271647316489	5
0	10649	1336.576217678652	4
0	10651	1336.625167668388	3
0	10653	1336.644788484763	2
0	10655	1336.948173022811	1
0	10658	1336.988472277609	2
0	10659	1336.996449644886	1
0	10662	1337.013985072723	2
0	10663	1337.041725707636	1
0	10666	1337.348452265072	2
0	10668	1337.397565502133	3
0	10670	1337.493853736369	4
0	10671	1337.542631604017	3
0	10673	1337.592735348228	2
0	10676	1338.039639648661	3
0	10678	1338.156509681528	4
0	10679	1338.168649254204	3
0	10681	1338.311639092814	2
0	10683	1338.966805589849	1
0	10685	1338.969203519762	0
0	10700	1340.05266460962	1
0	10701	1340.072387827606	0
0	10704	1340.117639281753	1
0	10705	1340.245518457804	0
0	10712	1341.246161047689	1
0	10714	1341.504652521851	2
0	10715	1341.70826102253	1
0	10718	1342.023913434806	2
0	10719	1342.042833356353	1
0	10722	1342.219806660434	2
0	10723	1342.291600061907	1
0	10726	1342.407408555765	2
0	10727	1342.943837419694	1
0	10729	1343.045634016246	0
0	10744	1344.037428680463	1
0	10746	1344.114349048822	2
0	10747	1344.165349369233	1
0	10749	1344.495012150843	0
0	10752	1344.662578527528	1
0	10753	1344.924102089912	0
0	10756	1345.13256760779	1
0	10757	1345.424667164759	0
0	10768	1346.52690866714	1
0	10769	1346.742404578718	0
0	10792	1351.358125905894	1
0	10793	1351.429177561555	0
0	10812	1353.127761503591	1
0	10813	1353.301498935975	0
0	10816	1353.388574129822	1
0	10817	1353.662296912747	0
0	10820	1353.750575286732	1
0	10821	1353.917376073459	0
0	10832	1354.794760226712	1
0	10833	1354.809979396264	0
0	10860	1359.136166511245	1
0	10862	1359.249424184294	2
0	10864	1359.647965474082	3
0	10865	1359.670616649067	2
0	10867	1359.872132170013	1
0	10869	1359.910302637409	0
0	10884	1362.534768609604	1
0	10886	1362.676320021934	2
0	10887	1362.70046412766	1
0	10889	1363.097410881413	0
0	10932	1369.324962015105	1
0	10933	1369.333042079729	0
0	10940	1370.773665651523	1
0	10942	1371.204867684512	2
0	10943	1371.414735816239	1
0	10946	1371.464746617778	2
0	10947	1371.469630734003	1
0	10950	1371.853917553443	2
0	10951	1371.937020468725	1
0	10953	1372.052283740417	0
0	10968	1373.652605133618	1
0	10969	1373.769708993303	0
0	10984	1375.596616406565	1
0	10985	1375.687748848465	0
0	10988	1375.780408078842	1
0	10989	1375.832049804181	0
0	10996	1376.593654437652	1
0	10997	1376.604625835788	0
0	11028	1380.846078637761	1
0	11030	1380.905459036493	2
0	11032	1381.076480062708	3
0	11033	1381.108865611927	2
0	11035	1381.419402323716	1
0	11037	1381.613633155763	0
0	11040	1381.741242199981	1
0	11042	1382.114177601646	2
0	11044	1382.322344729919	3
0	11045	1382.886913459159	2
0	11047	1383.056342932027	1
0	11049	1383.172433497548	0
0	11148	1396.721611167495	1
0	11150	1396.785345544442	2
0	11151	1396.889786026748	1
0	11154	1396.900350136604	2
0	11156	1396.901898343779	3
0	11158	1396.908786862408	4
0	11160	1397.417281433976	5
0	11162	1397.578271760496	6
0	11163	1397.622861923856	5
0	11166	1397.862459151774	6
0	11168	1398.193418822783	7
0	11169	1398.260869385677	6
0	11171	1398.478391733921	5
0	11173	1398.484105550992	4
0	11175	1398.542669541699	3
0	11178	1398.642531573053	4
0	11180	1398.981589165463	5
0	11182	1399.068926853199	6
0	11183	1399.211183524852	5
0	11186	1399.275905613663	6
0	11188	1399.278965171852	7
0	11189	1399.356991447024	6
0	11191	1399.562996594927	5
0	11193	1399.611003539726	4
0	11195	1399.63709410621	3
0	11197	1399.654550732381	2
0	11199	1399.719973378187	1
0	11202	1399.782189973481	2
0	11204	1399.957494000796	3
0	11206	1400.245812642602	4
0	11207	1400.50129573544	3
0	11210	1400.566161303482	4
0	11211	1400.742901647457	3
0	11213	1400.8214969937	2
0	11216	1400.908756961013	3
0	11218	1401.066546414001	4
0	11220	1401.139455470912	5
0	11221	1401.210042842437	4
0	11224	1401.217731793392	5
0	11225	1401.229106957521	4
0	11227	1401.262469011116	3
0	11229	1401.8254025691	2
0	11232	1401.866600501983	3
0	11233	1401.93911006341	2
0	11235	1402.01950692597	1
0	11237	1402.111808446707	0
0	11244	1403.397178646858	1
0	11245	1403.536384888741	0
0	11276	1408.275119282227	1
0	11278	1408.350612127599	2
0	11280	1408.570691862371	3
0	11282	1409.126135625381	4
0	11284	1409.468137568244	5
0	11286	1409.474793191842	6
0	11288	1409.621436546356	7
0	11289	1409.72482807467	6
0	11291	1409.741152899794	5
0	11293	1409.814958868904	4
0	11295	1409.860124654009	3
0	11297	1410.145722706533	2
0	11299	1410.435321962168	1
0	11301	1410.582712643235	0
0	11360	1417.48919889862	1
0	11362	1417.504208889063	2
0	11364	1417.908220650731	3
0	11365	1418.474517407232	2
0	11367	1418.690283016207	1
0	11369	1419.089941593298	0
0	11384	1420.516403802094	1
0	11385	1420.643260955465	0
0	11392	1421.227713598868	1
0	11393	1421.465668464346	0
0	11396	1421.479137137815	1
0	11397	1421.570961915183	0
0	11444	1429.144883559406	1
0	11445	1429.265820230383	0
0	11448	1429.29805580938	1
0	11449	1429.498113491429	0
0	11456	1430.415393759202	1
0	11457	1430.424797956377	0
0	11472	1432.083111851685	1
0	11473	1432.514133726743	0
0	11476	1432.554794514248	1
0	11478	1432.57458122045	2
0	11479	1432.833999455898	1
0	11481	1432.849863137111	0
0	11496	1434.019864864498	1
0	11497	1434.067425540495	0
0	11504	1434.816007224432	1
0	11505	1435.118180940787	0
0	11512	1435.205958553377	1
0	11514	1435.225270551241	2
0	11515	1435.302104171349	1
0	11517	1435.319373433846	0
0	11524	1435.344690499152	1
0	11525	1435.356768665872	0
0	11532	1436.204491583143	1
0	11533	1436.980571769898	0
0	11548	1438.843148956359	1
0	11549	1438.885797910533	0
0	11552	1439.257236632168	1
0	11554	1439.35479126491	2
0	11555	1439.41060935072	1
0	11558	1439.485894942923	2
0	11559	1439.549691700854	1
0	11562	1439.574549337613	2
0	11564	1439.99458847026	3
0	11565	1440.534814363972	2
0	11568	1440.596511091683	3
0	11569	1440.835592527026	2
0	11572	1440.858804167186	3
0	11573	1440.963167893477	2
0	11576	1440.978152530848	3
0	11577	1441.108587528687	2
0	11580	1441.159868663471	3
0	11581	1441.188482823955	2
0	11583	1441.201402616419	1
0	11585	1441.326479428127	0
0	11620	1444.417176334924	1
0	11621	1444.490918079802	0
0	11648	1448.870251358229	1
0	11649	1449.073765812592	0
0	11660	1449.657081158701	1
0	11661	1449.681207539716	0
0	11680	1451.776018974806	1
0	11682	1451.906680089141	2
0	11683	1452.068291824701	1
0	11685	1452.135049944835	0
0	11688	1452.146936708676	1
0	11689	1452.152714799913	0
0	11696	1452.888514631447	1
0	11697	1452.933226642745	0
0	11724	1455.598291312345	1
0	11725	1455.719993839304	0
0	11748	1458.418068544101	1
0	11749	1458.751365068431	0
0	11760	1459.410797213029	1
0	11761	1459.484397312219	0
0	11772	1460.169302708157	1
0	11773	1460.259980292501	0
0	11776	1460.398348704488	1
0	11777	1460.419548608121	0
0	11784	1461.093907983663	1
0	11786	1461.169764346024	2
0	11787	1461.268786749722	1
0	11789	1461.341495140732	0
0	11820	1464.043652798767	1
0	11821	1464.25872756511	0
0	11828	1466.046577241206	1
0	11830	1466.216507550732	2
0	11832	1466.953351583869	3
0	11834	1467.054957975124	4
0	11835	1467.085074803517	3
0	11837	1467.113986872962	2
0	11839	1467.116990917291	1
0	11842	1467.319976275222	2
0	11844	1467.44653164582	3
0	11845	1467.769289444967	2
0	11847	1467.814463216144	1
0	11849	1467.822970674916	0
0	11856	1469.756333613226	1
0	11858	1469.767701556614	2
0	11860	1469.841216981664	3
0	11861	1470.194574305649	2
0	11863	1470.303438025341	1
0	11866	1470.337034390479	2
0	11867	1470.3898404613	1
0	11870	1470.708256531512	2
0	11872	1470.910523479144	3
0	11873	1471.439958385462	2
0	11875	1471.567644751561	1
0	11877	1471.958718311196	0
0	11880	1472.192783390147	1
0	11881	1472.230867768557	0
0	11884	1472.318871905229	1
0	11885	1472.444162208019	0
0	11904	1473.89337482561	1
0	11905	1473.958117364931	0
0	11924	1475.937157404388	1
0	11925	1476.254391935792	0
0	11940	1477.853108255985	1
0	11941	1477.899017796087	0
0	11956	1479.47662413162	1
0	11957	1479.522437207949	0
0	11960	1479.541279866711	1
0	11962	1479.684221590469	2
0	11963	1479.702419686498	1
0	11966	1480.05192089175	2
0	11967	1480.069286215166	1
0	11969	1480.091308289839	0
0	11976	1480.974306295947	1
0	11977	1480.981511683426	0
0	11992	1483.207990794905	1
0	11993	1483.390624563861	0
0	11996	1483.767642838418	1
0	11998	1484.217359670723	2
0	12000	1484.257380564147	3
0	12001	1484.425784736246	2
0	12003	1484.785029484226	1
0	12006	1485.750769105668	2
0	12007	1485.808984551061	1
0	12009	1486.158547213122	0
0	12016	1487.249415381734	1
0	12017	1487.521422992462	0
0	12036	1489.271885618806	1
0	12038	1489.500354472754	2
0	12039	1489.515121364891	1
0	12041	1489.536488277466	0
0	12056	1490.721280827261	1
0	12058	1490.884499416394	2
0	12060	1491.05435693901	3
0	12061	1491.126333342607	2
0	12063	1491.596367090867	1
0	12065	1491.766241672047	0
0	12068	1491.855429498743	1
0	12069	1491.939093140003	0
0	12072	1492.025681750991	1
0	12074	1492.065398687514	2
0	12075	1492.264122360758	1
0	12078	1492.27944565416	2
0	12080	1492.447794204966	3
0	12081	1492.66809052203	2
0	12083	1492.88704575333	1
0	12086	1493.160767239209	2
0	12087	1493.252520587679	1
0	12089	1493.329210752899	0
0	12092	1493.471254116851	1
0	12093	1493.939729820578	0
0	12100	1494.828101758889	1
0	12102	1494.838216651249	2
0	12103	1494.975460016282	1
0	12105	1494.984287075292	0
0	12128	1499.34893780402	1
0	12129	1499.83885668342	0
0	12132	1499.85509741973	1
0	12133	1499.908228657536	0
0	12140	1500.217768306197	1
0	12142	1500.30430189522	2
0	12143	1500.343954994246	1
0	12146	1500.364313448918	2
0	12147	1500.505823744865	1
0	12150	1500.820073653143	2
0	12152	1501.022821897609	3
0	12154	1501.060317162165	4
0	12155	1501.179349448039	3
0	12157	1501.21063412557	2
0	12159	1501.352820235409	1
0	12161	1501.654199151911	0
0	12176	1503.622634761993	1
0	12177	1503.912982823586	0
0	12180	1504.034736959531	1
0	12182	1504.131684300502	2
0	12183	1504.636355385516	1
0	12186	1504.684429945265	2
0	12187	1504.808957712871	1
0	12190	1504.868502396918	2
0	12192	1505.402151066097	3
0	12193	1505.606171155305	2
0	12196	1505.61973384816	3
0	12197	1505.755304512255	2
0	12200	1506.009786535758	3
0	12201	1506.042610036714	2
0	12203	1506.135026589457	1
0	12205	1506.461700338624	0
0	12216	1507.515204423999	1
0	12217	1507.568320241558	0
0	12236	1510.657269320385	1
0	12238	1511.20098336326	2
0	12239	1511.30177970912	1
0	12242	1511.59807788273	2
0	12243	1511.662941265011	1
0	12245	1511.711366732534	0
0	12260	1516.801905329581	1
0	12261	1517.203030743985	0
0	12276	1519.003664840259	1
0	12277	1519.117264763209	0
0	12280	1519.224108290593	1
0	12282	1519.314574143952	2
0	12283	1519.821873456605	1
0	12285	1519.828107699769	0
0	12292	1520.438411322658	1
0	12293	1520.670771808222	0
0	12296	1520.688144552982	1
0	12297	1520.754433302756	0
0	12308	1523.908525518079	1
0	12309	1523.928231591705	0
0	12324	1526.164987016574	1
0	12325	1526.426504572744	0
0	12328	1526.432916632253	1
0	12329	1526.503282052386	0
0	12336	1526.652001516734	1
0	12337	1527.236915056306	0
0	12360	1530.954064764425	1
0	12361	1531.084264681023	0
0	12380	1532.328859731676	1
0	12382	1532.429231355569	2
0	12384	1532.542870740973	3
0	12385	1533.032961722031	2
0	12387	1533.223683060953	1
0	12390	1533.317783538122	2
0	12391	1533.687290561348	1
0	12393	1533.690591686107	0
0	12396	1535.001043839561	1
0	12398	1535.345980583136	2
0	12399	1535.500291517194	1
0	12401	1535.792080476279	0
0	12420	1541.16716247273	1
0	12421	1541.315668292369	0
0	12428	1541.802716684343	1
0	12429	1541.842103448261	0
0	12432	1541.891488484317	1
0	12433	1541.929659584425	0
0	12452	1543.301753079937	1
0	12453	1543.446472326444	0
0	12456	1543.719891924178	1
0	12458	1543.771992323475	2
0	12459	1543.970344073276	1
0	12462	1544.099753795898	2
0	12463	1544.271107766396	1
0	12466	1544.329674929377	2
0	12467	1544.712225532471	1
0	12469	1544.780472629451	0
0	12472	1544.82485590309	1
0	12473	1544.897754527148	0
0	12476	1545.27457909249	1
0	12477	1545.456173348511	0
0	12484	1545.798009062572	1
0	12485	1545.920835234731	0
0	12492	1546.629033357178	1
0	12493	1546.769083620222	0
0	12496	1546.958209721294	1
0	12497	1547.051481952491	0
0	12500	1547.076047486152	1
0	12501	1547.472691741762	0
0	12536	1552.300001583312	1
0	12538	1553.10804394987	2
0	12540	1553.173970203815	3
0	12542	1553.377155825723	4
0	12543	1553.396137070776	3
0	12546	1553.478507831271	4
0	12547	1553.501683625719	3
0	12550	1553.541234277884	4
0	12551	1553.578562671013	3
0	12553	1553.654502770572	2
0	12555	1553.710521583488	1
0	12557	1553.910952740647	0
0	12564	1554.127611984515	1
0	12566	1554.423433973523	2
0	12567	1554.565396936844	1
0	12569	1554.748940157064	0
0	12580	1555.528125858749	1
0	12581	1556.017768532567	0
0	12588	1558.005015463733	1
0	12590	1558.061034850746	2
0	12592	1558.362124710551	3
0	12593	1558.409523497792	2
0	12595	1558.807242677881	1
0	12598	1558.832930367747	2
0	12599	1559.219968798155	1
0	12601	1559.4235252606	0
0	12660	1568.480183312209	1
0	12662	1568.873259647334	2
0	12663	1568.898671755667	1
0	12666	1569.181737609562	2
0	12667	1569.316106434882	1
0	12669	1569.449821146175	0
0	12672	1569.550112324717	1
0	12673	1569.776401481569	0
0	12700	1575.0549818819	1
0	12701	1575.10070388759	0
0	12712	1578.327570466669	1
0	12714	1578.480416156876	2
0	12715	1578.507591696229	1
0	12718	1578.596671878733	2
0	12719	1578.70871022692	1
0	12721	1578.734924412502	0
0	12780	1585.288396947593	1
0	12781	1585.357457645072	0
0	12784	1585.58935870113	1
0	12785	1585.812568816127	0
0	12796	1587.491522411941	1
0	12797	1587.692628357129	0
0	12824	1593.632469165739	1
0	12825	1593.658406016153	0
0	12836	1595.595595672426	1
0	12837	1595.958219251406	0
0	12844	1596.504487600347	1
0	12846	1596.766722127194	2
0	12847	1596.779707711324	1
0	12850	1596.809614676559	2
0	12851	1596.93783459253	1
0	12854	1597.121767725178	2
0	12856	1597.437042711609	3
0	12857	1597.936363609463	2
0	12859	1598.15089223227	1
0	12862	1598.318594764547	2
0	12863	1598.345552089694	1
0	12865	1598.67608764878	0
0	12884	1601.495221246055	1
0	12885	1601.603574590962	0
0	12888	1601.653444774016	1
0	12889	1601.758631415935	0
0	12924	1606.94676097083	1
0	12926	1607.052527373209	2
0	12927	1607.059639488977	1
0	12929	1607.155854222587	0
0	12932	1607.288626196256	1
0	12933	1607.371321041351	0
0	12952	1611.196766637629	1
0	12953	1611.215291608018	0
0	12960	1612.271546933632	1
0	12962	1612.455099460314	2
0	12963	1612.772011824368	1
0	12965	1612.825518400693	0
0	12976	1613.782369446138	1
0	12978	1613.901680093812	2
0	12979	1614.003810716544	1
0	12981	1614.058640898065	0
0	12984	1614.071866246921	1
0	12986	1614.103784095356	2
0	12987	1614.237942291095	1
0	12990	1614.459101956852	2
0	12991	1614.579351067147	1
0	12994	1614.657710036426	2
0	12995	1614.673476382778	1
0	12997	1614.705680308004	0
0	13008	1615.380076316296	1
0	13010	1615.691022532187	2
0	13012	1615.865742532149	3
0	13014	1616.078576571017	4
0	13016	1616.126794068403	5
0	13017	1616.370098697177	4
0	13019	1616.417448023707	3
0	13022	1616.42581551588	4
0	13023	1616.51610019883	3
0	13025	1616.519955573191	2
0	13027	1616.717681661433	1
0	13030	1616.774976161735	2
0	13031	1617.018998622006	1
0	13033	1617.022013720364	0
0	13044	1617.567761674709	1
0	13045	1617.59657056671	0
0	13056	1619.168425072887	1
0	13057	1619.186782718374	0
0	13076	1621.850537074237	1
0	13077	1622.139819053306	0
0	13088	1623.844004025402	1
0	13089	1624.034502383308	0
0	13108	1626.402790718227	1
0	13109	1626.480744434585	0
0	13124	1627.792385806211	1
0	13125	1627.868322670076	0
0	13136	1628.968156669158	1
0	13137	1629.071660564714	0
0	13140	1629.103007439839	1
0	13142	1629.124141776756	2
0	13144	1629.165098359234	3
0	13146	1629.212615879507	4
0	13148	1629.408231030424	5
0	13149	1629.474941745104	4
0	13151	1629.606699179456	3
0	13153	1629.8280575631	2
0	13155	1629.904131678595	1
0	13158	1630.129847507461	2
0	13160	1630.275295742047	3
0	13161	1630.443004800504	2
0	13163	1630.479733025756	1
0	13165	1630.489550328713	0
0	13184	1632.878537737226	1
0	13185	1633.027698883504	0
0	13216	1638.26291839197	1
0	13218	1638.550974051061	2
0	13220	1638.587165503228	3
0	13222	1638.938446561383	4
0	13223	1639.288286120039	3
0	13225	1639.333729385035	2
0	13227	1639.75394264535	1
0	13229	1639.826939410575	0
0	13236	1640.426788646524	1
0	13238	1640.436269687628	2
0	13239	1640.452315956194	1
0	13241	1640.582895150601	0
0	13244	1641.016959061886	1
0	13246	1641.074299712628	2
0	13247	1641.25459212316	1
0	13249	1641.295515797704	0
0	13252	1641.544659567452	1
0	13253	1641.635597056654	0
0	13256	1641.706263768104	1
0	13257	1641.70935504961	0
0	13260	1641.760796516056	1
0	13262	1641.761042059464	2
0	13263	1641.855107909538	1
0	13266	1642.110361086204	2
0	13268	1642.151002703873	3
0	13269	1642.933199059633	2
0	13271	1643.056353999999	1
0	13273	1643.122796850416	0
0	13276	1643.214820755642	1
0	13278	1643.380032780146	2
0	13279	1643.578932230523	1
0	13282	1643.753521651478	2
0	13283	1643.897584486919	1
0	13285	1643.932643277143	0
0	13300	1646.350582594735	1
0	13301	1646.483114220748	0
0	13304	1646.683351970339	1
0	13305	1646.825525114548	0
0	13320	1648.355944156818	1
0	13321	1648.749053681904	0
0	13324	1648.916253379838	1
0	13326	1649.700744595375	2
0	13327	1649.749417119681	1
0	13329	1649.819278633421	0
0	13332	1650.137505440084	1
0	13333	1650.566559250783	0
0	13376	1657.316823526233	1
0	13378	1657.460221834547	2
0	13380	1657.46635017473	3
0	13381	1657.599223307797	2
0	13384	1657.674541692991	3
0	13385	1657.690780973665	2
0	13388	1657.790022583414	3
0	13389	1658.432758468038	2
0	13392	1658.747932232906	3
0	13394	1658.81752008993	4
0	13395	1658.876416169642	3
0	13397	1659.653160977075	2
0	13399	1659.779049669004	1
0	13401	1659.980618760374	0
0	13416	1662.921878902614	1
0	13418	1663.071932206601	2
0	13419	1663.423038969768	1
0	13421	1663.576186859116	0
0	13464	1669.995031931221	1
0	13466	1670.234738487672	2
0	13467	1670.547856066289	1
0	13469	1670.614708091634	0
0	13472	1670.628203594666	1
0	13474	1670.778202322602	2
0	13476	1670.957325742272	3
0	13477	1671.491488654499	2
0	13479	1671.630110115482	1
0	13482	1671.792381956193	2
0	13483	1672.033735126404	1
0	13485	1672.48093270832	0
0	13492	1673.023201638652	1
0	13493	1673.224109324719	0
0	13496	1673.471941765147	1
0	13498	1673.563389347549	2
0	13499	1674.086177919923	1
0	13502	1674.105538750324	2
0	13504	1674.795210374141	3
0	13505	1674.919669529742	2
0	13507	1674.930271857072	1
0	13509	1675.331073416108	0
0	13528	1678.054235254323	1
0	13529	1678.482680354643	0
0	13568	1682.58767454531	1
0	13569	1682.594242481942	0
0	13592	1686.73018610321	1
0	13593	1687.119681350286	0
0	13600	1687.491926348858	1
0	13601	1687.55006094856	0
0	13624	1692.218891174264	1
0	13625	1692.550920710156	0
0	13628	1693.584190584462	1
0	13630	1693.728713775752	2
0	13632	1693.76252756507	3
0	13633	1693.848745335412	2
0	13636	1694.029049175537	3
0	13637	1694.113111758524	2
0	13639	1694.34925365274	1
0	13642	1694.372133052501	2
0	13643	1694.402556912416	1
0	13645	1694.652546491127	0
0	13676	1697.878738028222	1
0	13678	1698.472203520414	2
0	13679	1698.73542697156	1
0	13681	1698.769814047198	0
0	13696	1700.365851333654	1
0	13697	1700.389854864678	0
0	13700	1700.45302656187	1
0	13701	1700.586534466473	0
0	13704	1700.662126058649	1
0	13706	1700.677515963914	2
0	13707	1700.770354604149	1
0	13709	1700.782624939242	0
0	13716	1701.187279278687	1
0	13717	1701.253088235951	0
0	13728	1702.357936571207	1
0	13729	1702.391066002732	0
0	13736	1703.113048740793	1
0	13738	1703.59545157283	2
0	13739	1704.015257062671	1
0	13741	1704.080225669799	0
0	13744	1704.118672502613	1
0	13745	1704.300181641181	0
0	13756	1705.862254024702	1
0	13757	1706.193427684892	0
0	13768	1706.476013808025	1
0	13769	1706.645364345548	0
0	13780	1707.646050955949	1
0	13781	1707.726135280476	0
0	13800	1713.034475166177	1
0	13802	1713.065042758905	2
0	13804	1713.095407555636	3
0	13805	1713.460975674339	2
0	13808	1713.961880647772	3
0	13810	1714.099079396355	4
0	13812	1714.45829702928	5
0	13814	1714.937561340448	6
0	13815	1714.972142636955	5
0	13817	1715.834741947229	4
0	13820	1716.670717466476	5
0	13821	1716.698379897285	4
0	13823	1716.763100931856	3
0	13825	1716.791978819603	2
0	13827	1716.794034578023	1
0	13829	1717.053434908673	0
0	13836	1717.730076287535	1
0	13837	1717.812221543711	0
0	13868	1723.398293738052	1
0	13869	1723.616610770787	0
0	13884	1725.225937248172	1
0	13885	1725.40865471146	0
0	13892	1727.019731652074	1
0	13893	1727.215045228474	0
0	13896	1727.349138087356	1
0	13898	1727.710009544163	2
0	13899	1727.799143285019	1
0	13901	1727.94076517707	0
0	13908	1728.450479120265	1
0	13910	1728.47866685833	2
0	13911	1728.709491779118	1
0	13913	1728.87005095313	0
0	13924	1730.448666166003	1
0	13925	1730.449499334134	0
0	13928	1730.470076910135	1
0	13929	1730.483124570197	0
0	13968	1736.23914006632	1
0	13969	1736.298201459598	0
0	13972	1736.342816629643	1
0	13974	1736.622373149477	2
0	13975	1736.758048184729	1
0	13977	1736.878150213498	0
0	13980	1736.949740930845	1
0	13981	1737.0224441209	0
0	13988	1737.939220735234	1
0	13990	1738.051678835891	2
0	13991	1738.068353694849	1
0	13993	1738.162974598149	0
0	14000	1739.233571831893	1
0	14001	1739.541469027104	0
0	14004	1739.645911779197	1
0	14005	1739.742756190863	0
0	14024	1742.115753233081	1
0	14025	1742.425337867203	0
0	14060	1746.370532261426	1
0	14061	1746.648443422492	0
0	14064	1746.689398768674	1
0	14065	1746.728205236205	0
0	14076	1747.877706989826	1
0	14077	1748.312949394355	0
0	14080	1748.365127225958	1
0	14081	1748.384124206125	0
0	14084	1748.543173647924	1
0	14085	1748.697783175729	0
0	14116	1751.500008126165	1
0	14117	1751.543814231124	0
0	14120	1751.748312567901	1
0	14122	1751.819244286362	2
0	14123	1752.089058774132	1
0	14125	1752.1487636007	0
0	14132	1753.744537021111	1
0	14133	1753.855446636378	0
0	14136	1753.877758875148	1
0	14137	1753.967556827875	0
0	14140	1753.997121562325	1
0	14142	1754.158586024384	2
0	14144	1754.169914809566	3
0	14145	1754.221429933864	2
0	14147	1754.263628519497	1
0	14149	1754.382708926704	0
0	14152	1754.748359321199	1
0	14153	1754.760724179717	0
0	14164	1755.239793856845	1
0	14166	1755.3679706318	2
0	14167	1755.475392154283	1
0	14170	1755.479237309035	2
0	14171	1755.485189112378	1
0	14173	1755.500438075829	0
0	14200	1760.821534757545	1
0	14202	1760.86305846465	2
0	14203	1761.233089556581	1
0	14205	1761.396642637494	0
0	14212	1761.64108251799	1
0	14213	1761.887271400985	0
0	14216	1761.913752113243	1
0	14217	1761.963530010379	0
0	14232	1764.733870681755	1
0	14233	1764.879425075956	0
0	14236	1764.912575523312	1
0	14237	1764.971110797913	0
0	14264	1767.834867390657	1
0	14265	1768.403396322847	0
0	14280	1769.827743499169	1
0	14281	1769.880728464153	0
0	14316	1777.717464413481	1
0	14318	1777.743800305811	2
0	14320	1777.801375596792	3
0	14322	1778.317351464788	4
0	14323	1778.324136352172	3
0	14325	1778.359513188989	2
0	14328	1778.362530234917	3
0	14329	1778.394151912416	2
0	14332	1778.739434772392	3
0	14333	1779.127354089117	2
0	14335	1779.147532665994	1
0	14337	1779.227641376857	0
0	14392	1785.709338542991	1
0	14393	1785.931432118184	0
0	14408	1787.253829087277	1
0	14409	1787.422153437745	0
0	14416	1787.522119511796	1
0	14418	1787.569259455697	2
0	14420	1787.570967251427	3
0	14422	1787.687493328595	4
0	14424	1787.732102706387	5
0	14426	1788.728176058033	6
0	14427	1789.157094416334	5
0	14429	1789.315127730929	4
[...]
4	26364	3266.066085626235	6591
4	26368	3266.663520829418	6592
4	26372	3267.459717515648	6593
4	26376	3267.924458644793	6594
4	26382	3269.652276000324	6595
4	26384	3269.726241354933	6596
4	26388	3270.652803152938	6597
4	26392	3271.333543448215	6598
4	26396	3271.4602316979	6599
4	26400	3272.228471342425	6600
4	26404	3272.714030065396	6601
4	26408	3272.739685967973	6602
4	26412	3273.032779404865	6603
4	26420	3273.173773717373	6604
4	26424	3273.302973761225	6605
4	26428	3273.390905924439	6606
4	26430	3273.475181352384	6607
4	26434	3273.501960571981	6608
4	26436	3273.577027251431	6609
4	26440	3274.132897210095	6610
4	26444	3274.933479883953	6611
4	26448	3276.019497360819	6612
4	26454	3277.332712885539	6613
4	26456	3277.346400472443	6614
4	26460	3278.663424743875	6615
4	26464	3278.95692221716	6616
4	26468	3279.153759626774	6617
4	26472	3280.181733233322	6618
4	26478	3280.773091433402	6619
4	26480	3280.829092172052	6620
4	26490	3283.361219989876	6621
4	26494	3283.761237410874	6622
4	26498	3283.982511038918	6623
4	26500	3284.01069209111	6624
4	26502	3284.073777980839	6625
4	26504	3285.07766934344	6626
4	26510	3286.162397659474	6627
4	26518	3286.838608824379	6628
4	26522	3286.876119302789	6629
4	26524	3286.940284959331	6630
4	26528	3287.78913922795	6631
4	26530	3287.874521244518	6632
4	26532	3287.92963699221	6633
4	26538	3288.920548210208	6634
4	26546	3289.824340531473	6635
4	26548	3289.875379658739	6636
4	26552	3290.009114789836	6637
4	26554	3290.043863547944	6638
4	26556	3290.187644288436	6639
4	26562	3290.267457080178	6640
4	26564	3290.479673990789	6641
4	26572	3290.939094502985	6642
4	26574	3291.007536398388	6643
4	26578	3291.073518301295	6644
4	26580	3291.142195016981	6645
4	26584	3291.681838385396	6646
4	26590	3291.884076921054	6647
4	26592	3292.251445020498	6648
4	26596	3293.720066576118	6649
4	26600	3294.55780018162	6650
4	26604	3296.372757766714	6651
4	26608	3296.998275523761	6652
4	26612	3297.121303238599	6653
4	26616	3297.546369402217	6654
4	26624	3297.789284778925	6655
4	26626	3297.895108867913	6656
4	26630	3298.685081459387	6657
4	26632	3298.687818772582	6658
4	26638	3300.291757055444	6659
4	26640	3300.473262213989	6660
4	26644	3302.294399578945	6661
4	26654	3304.369534290018	6662
4	26660	3304.78979502937	6663
4	26662	3304.970662730724	6664
4	26664	3305.12115648691	6665
4	26666	3305.23757736773	6666
4	26674	3305.842896038684	6667
4	26676	3305.853552855521	6668
4	26678	3305.85412452262	6669
4	26680	3306.009927853709	6670
4	26686	3306.577052851437	6671
4	26688	3306.619543428864	6672
4	26692	3306.906352613541	6673
4	26700	3308.192082026597	6674
4	26702	3308.388023997245	6675
4	26706	3308.524775859455	6676
4	26708	3308.531511675243	6677
4	26712	3309.339558665638	6678
4	26716	3309.980335947566	6679
4	26724	3310.546197110367	6680
4	26726	3310.613065171076	6681
4	26728	3310.700910817304	6682
4	26734	3311.614516765141	6683
4	26738	3311.71808406263	6684
4	26740	3311.853427212577	6685
4	26744	3312.264949179707	6686
4	26748	3313.501123331995	6687
4	26752	3315.721132577873	6688
4	26756	3315.848709323372	6689
4	26768	3318.593156370012	6690
4	26770	3318.716550343879	6691
4	26772	3318.747473528239	6692
4	26774	3318.773463306506	6693
4	26776	3318.792684675297	6694
4	26780	3318.876201632235	6695
4	26784	3319.27762195919	6696
4	26788	3319.726435581409	6697
4	26792	3320.479820921929	6698
4	26798	3320.624506753562	6699
4	26800	3320.627118568818	6700
4	26804	3321.572918075741	6701
4	26808	3322.162303156742	6702
4	26812	3322.334339828861	6703
4	26816	3323.790758385382	6704
4	26820	3324.662912287031	6705
4	26824	3325.11513660149	6706
4	26828	3325.408997320117	6707
4	26832	3325.743464441863	6708
4	26838	3325.82386252659	6709
4	26840	3325.86682957837	6710
4	26844	3327.113522766427	6711
4	26848	3327.53252833416	6712
4	26852	3327.95763009034	6713
4	26860	3328.814982308001	6714
4	26862	3329.060020359807	6715
4	26864	3329.13141267472	6716
4	26870	3329.701737477149	6717
4	26872	3329.805813333059	6718
4	26876	3330.306488742721	6719
4	26882	3330.772008056416	6720
4	26886	3330.933175321485	6721
4	26888	3331.06709900658	6722
4	26892	3331.231947658134	6723
4	26900	3332.374904493859	6724
4	26902	3332.420134249688	6725
4	26904	3332.420231533223	6726
4	26908	3332.627670040819	6727
4	26912	3334.375019590871	6728
4	26916	3334.871400705603	6729
4	26920	3338.218293255643	6730
4	26924	3338.98984521677	6731
4	26928	3339.337384367012	6732
4	26934	3339.833892684591	6733
4	26936	3339.867355593381	6734
4	26940	3340.297983118419	6735
4	26944	3340.741907168312	6736
4	26948	3341.553693941342	6737
4	26952	3342.22833625141	6738
4	26956	3342.94010526501	6739
4	26960	3343.171206760737	6740
4	26964	3344.207971566648	6741
4	26968	3345.608874750021	6742
4	26972	3348.216508019836	6743
4	26978	3348.943398925035	6744
4	26980	3349.033328233259	6745
4	26986	3349.26491664313	6746
4	26990	3349.782883709456	6747
4	26992	3349.794139804296	6748
4	26998	3350.576294392124	6749
4	27000	3350.600817446417	6750
4	27004	3350.908276767649	6751
4	27008	3351.170535265953	6752
4	27012	3351.38596388287	6753
4	27016	3352.349763490423	6754
4	27020	3352.517399253249	6755
4	27026	3353.231750073796	6756
4	27028	3353.265174636644	6757
4	27032	3353.788374999101	6758
4	27038	3354.770806310782	6759
4	27040	3355.051919390048	6760
4	27046	3356.22848211524	6761
4	27050	3356.515524994865	6762
4	27052	3356.569298152433	6763
4	27056	3357.070272541431	6764
4	27060	3357.83932617115	6765
4	27064	3358.104599614753	6766
4	27068	3358.309318298942	6767
4	27072	3359.307872687409	6768
4	27076	3360.155887321415	6769
4	27080	3360.634930977899	6770
4	27084	3361.547164213224	6771
4	27088	3361.654801225716	6772
4	27092	3362.456920119976	6773
4	27098	3363.101093986743	6774
4	27100	3363.112395399336	6775
4	27104	3363.512342990163	6776
4	27108	3364.640277120027	6777
4	27112	3364.763285571039	6778
4	27118	3365.722700623505	6779
4	27120	3365.72975119932	6780
4	27128	3366.755653259656	6781
4	27130	3366.796430984231	6782
4	27132	3366.883501271244	6783
4	27138	3367.423560037365	6784
4	27142	3367.71718145654	6785
4	27146	3367.898869981524	6786
4	27150	3368.102561091535	6787
4	27152	3368.231986664041	6788
4	27158	3368.56962591226	6789
4	27160	3368.597173614601	6790
4	27166	3370.306554279059	6791
4	27170	3370.431607827264	6792
4	27172	3370.96750474734	6793
4	27176	3371.636577542507	6794
4	27182	3372.803854608896	6795
4	27184	3373.057133127928	6796
4	27188	3374.368324546584	6797
4	27194	3374.578491659024	6798
4	27196	3374.586333639575	6799
4	27200	3374.800096104252	6800
4	27204	3374.969802174262	6801
4	27208	3375.177967048967	6802
4	27212	3376.2965089011	6803
4	27218	3377.084478049542	6804
4	27220	3377.124750316742	6805
4	27224	3377.527269249256	6806
4	27232	3378.248305556488	6807
4	27234	3378.260120364025	6808
4	27236	3378.543092550399	6809
4	27242	3378.90482610285	6810
4	27244	3378.907475116321	6811
4	27254	3380.255527343781	6812
4	27256	3380.644851899969	6813
4	27258	3381.159883466166	6814
4	27260	3381.183561180239	6815
4	27264	3382.152920017215	6816
4	27270	3382.492695475579	6817
4	27272	3382.753796073652	6818
4	27276	3383.373219997209	6819
4	27282	3385.818400237063	6820
4	27284	3386.263402483423	6821
4	27288	3386.829085919954	6822
4	27292	3388.666375623055	6823
4	27298	3388.89153760236	6824
4	27300	3388.932559308183	6825
4	27308	3389.577422770146	6826
4	27312	3390.083020672646	6827
4	27314	3390.277840117125	6828
4	27316	3390.394143428221	6829
4	27320	3390.635284056933	6830
4	27324	3390.990321736752	6831
4	27332	3391.816613999917	6832
4	27336	3392.044615453948	6833
4	27338	3392.124851994098	6834
4	27342	3392.231434022089	6835
4	27344	3392.234167555691	6836
4	27350	3392.778468135879	6837
4	27352	3392.960851361648	6838
4	27356	3393.106879805604	6839
4	27366	3394.358399203026	6840
4	27368	3394.829428926257	6841
4	27372	3394.859872673899	6842
4	27374	3395.082521871547	6843
4	27376	3395.181934560616	6844
4	27380	3395.359063494044	6845
4	27384	3395.751070928822	6846
4	27388	3396.983075893584	6847
4	27392	3397.388180389098	6848
4	27396	3397.481705179507	6849
4	27400	3398.115114347764	6850
4	27406	3399.158487111917	6851
4	27408	3399.243247217176	6852
4	27412	3399.710455318211	6853
4	27416	3399.996333137955	6854
4	27426	3400.960156905988	6855
4	27428	3401.072081856522	6856
4	27430	3401.146378338002	6857
4	27432	3401.195867006417	6858
4	27436	3401.527806371593	6859
4	27440	3401.923072540926	6860
4	27444	3402.014511872968	6861
4	27450	3403.417264617608	6862
4	27452	3403.533296469047	6863
4	27456	3403.868643611557	6864
4	27460	3407.599562951266	6865
4	27464	3409.142141397079	6866
4	27468	3409.680265242699	6867
4	27478	3411.742540066371	6868
4	27480	3411.806660314213	6869
4	27482	3411.841028098295	6870
4	27484	3411.89541196262	6871
4	27488	3412.029250287803	6872
4	27494	3414.094040246382	6873
4	27496	3414.174698783694	6874
4	27500	3415.544796365103	6875
4	27504	3415.771673350194	6876
4	27508	3416.876393637217	6877
4	27512	3417.500473489507	6878
4	27516	3418.11491325066	6879
4	27522	3419.479673510465	6880
4	27526	3419.632504276993	6881
4	27528	3419.752939967872	6882
4	27540	3420.50276067684	6883
4	27542	3420.53309729621	6884
4	27544	3420.605114670589	6885
4	27546	3420.622863667688	6886
4	27550	3421.479095734869	6887
4	27552	3421.517887431078	6888
4	27556	3421.582164233919	6889
4	27560	3421.998184360459	6890
4	27566	3422.546638510467	6891
4	27568	3422.580912397409	6892
4	27572	3422.924576535072	6893
4	27576	3423.30446240352	6894
4	27582	3423.546698552075	6895
4	27586	3423.789175487532	6896
4	27588	3423.902338056088	6897
4	27592	3424.33521504239	6898
4	27596	3424.504960872466	6899
4	27600	3425.26907031352	6900
4	27604	3425.451506732116	6901
4	27608	3425.774845806237	6902
4	27612	3426.381162037481	6903
4	27616	3426.89679055066	6904
4	27622	3427.322812323633	6905
4	27624	3427.691938165666	6906
4	27630	3430.33852885254	6907
4	27632	3430.349599563549	6908
4	27636	3431.372285962544	6909
4	27640	3432.19214935396	6910
4	27644	3434.001972410507	6911
4	27648	3434.180371279829	6912
4	27652	3434.497085074966	6913
4	27656	3435.104338718328	6914
4	27660	3435.810091610876	6915
4	27664	3436.435597066214	6916
4	27668	3437.559191760515	6917
4	27672	3438.009906147652	6918
4	27676	3438.676988933106	6919
4	27680	3438.73434532717	6920
4	27684	3438.85455577365	6921
4	27688	3438.938095376875	6922
4	27692	3439.568346248352	6923
4	27696	3440.815569860153	6924
4	27700	3441.164383958131	6925
4	27704	3441.329284183606	6926
4	27708	3441.427139147766	6927
4	27714	3442.6039882684	6928
4	27716	3442.79721037412	6929
4	27720	3444.114566872161	6930
4	27732	3445.34551212674	6931
4	27734	3445.419849471744	6932
4	27736	3445.45230812976	6933
4	27738	3445.575335075203	6934
4	27740	3445.636692160398	6935
4	27746	3445.873063718548	6936
4	27748	3445.973182851114	6937
4	27754	3447.464897241031	6938
4	27756	3447.588905698344	6939
4	27766	3450.107937668967	6940
4	27768	3450.125133902891	6941
4	27774	3450.432887110575	6942
4	27776	3450.460993763226	6943
4	27778	3450.513184448063	6944
4	27780	3451.352776953839	6945
4	27784	3451.838496678324	6946
4	27788	3452.403929515049	6947
4	27792	3452.536805236439	6948
4	27796	3452.64276341175	6949
4	27802	3453.172235420349	6950
4	27804	3453.339633752326	6951
4	27810	3453.709042128327	6952
4	27812	3453.820597006086	6953
4	27816	3454.253590355957	6954
4	27822	3455.009054099594	6955
4	27824	3455.249591406643	6956
4	27828	3455.450201067656	6957
4	27832	3458.059960236461	6958
4	27836	3459.02572406584	6959
4	27840	3459.384993736468	6960
4	27844	3459.435497218836	6961
4	27850	3459.518711531072	6962
4	27852	3459.684233725226	6963
4	27856	3460.559757668353	6964
4	27862	3462.125395811323	6965
4	27866	3462.561274185998	6966
4	27870	3463.195472822589	6967
4	27872	3463.293907530721	6968
4	27878	3464.687173446493	6969
4	27882	3464.951247106667	6970
4	27884	3465.028832966393	6971
4	27888	3465.998327002725	6972
4	27894	3467.164488367765	6973
4	27902	3467.765197885572	6974
4	27904	3467.789665362796	6975
4	27906	3467.944509805074	6976
4	27908	3467.956456479253	6977
4	27912	3468.679264060219	6978
4	27916	3468.802868686398	6979
4	27924	3469.41143956704	6980
4	27932	3470.381956562912	6981
4	27942	3471.224830601356	6982
4	27944	3471.560848990874	6983
4	27946	3471.728217616744	6984
4	27952	3471.911005650543	6985
4	27954	3471.928700991558	6986
4	27956	3472.025884067834	6987
4	27958	3472.16736456556	6988
4	27960	3472.190809756666	6989
4	27962	3472.217590441406	6990
4	27968	3473.554967794013	6991
4	27970	3473.7657161604	6992
4	27972	3473.802285070855	6993
4	27976	3474.020985355426	6994
4	27982	3474.25555689785	6995
4	27988	3474.666061593075	6996
4	27990	3474.722391946394	6997
4	27992	3474.836648764748	6998
4	27996	3474.923658852447	6999
4	28004	3476.04196638387	7000
4	28006	3476.241106621546	7001
4	28008	3476.591541899996	7002
4	28012	3476.907849326548	7003
4	28016	3477.494745566565	7004
4	28022	3478.033954594396	7005
4	28026	3478.254016328956	7006
4	28028	3478.340370147836	7007
4	28032	3478.861715501983	7008
4	28036	3479.002638092307	7009
4	28040	3479.212258967823	7010
4	28044	3480.358667798434	7011
4	28048	3480.967166630813	7012
4	28060	3484.798717919549	7013
4	28062	3485.353516380484	7014
4	28070	3485.738188760252	7015
4	28074	3486.173401507837	7016
4	28076	3486.284652428445	7017
4	28078	3486.457885505656	7018
4	28080	3486.506106768995	7019
4	28082	3486.619514108933	7020
4	28086	3486.841615533961	7021
4	28088	3486.971802890508	7022
4	28094	3488.753598026359	7023
4	28096	3488.868047004267	7024
4	28100	3489.449922254383	7025
4	28104	3489.854021245814	7026
4	28108	3490.291114639075	7027
4	28114	3491.230271479866	7028
4	28118	3491.29609651422	7029
4	28120	3491.565880852106	7030
4	28124	3491.865988771368	7031
4	28128	3492.903230499215	7032
4	28132	3492.98834898116	7033
4	28136	3493.797965219443	7034
4	28140	3493.873854740749	7035
4	28144	3494.103318671623	7036
4	28148	3494.358925363513	7037
4	28152	3494.595273552307	7038
4	28156	3495.353765624026	7039
4	28160	3495.85934412219	7040
4	28164	3497.112311479326	7041
4	28168	3497.428514338901	7042
4	28172	3498.162371782524	7043
4	28176	3498.303718726571	7044
4	28184	3499.913579563363	7045
4	28186	3500.420332629578	7046
4	28188	3500.572830119771	7047
4	28194	3500.812109765949	7048
4	28198	3500.977367966038	7049
4	28200	3501.222917508664	7050
4	28204	3503.581552866852	7051
4	28208	3503.748702460864	7052
4	28212	3505.520234163805	7053
4	28220	3506.837559184786	7054
4	28222	3506.844442772689	7055
4	28224	3506.923314517487	7056
4	28228	3508.743970068402	7057
4	28234	3509.739277957589	7058
4	28240	3509.979006250017	7059
4	28244	3510.447720475272	7060
4	28246	3510.485720020823	7061
4	28248	3510.603641644557	7062
4	28252	3511.08065384671	7063
4	28258	3511.610877696035	7064
4	28260	3511.731088903364	7065
4	28264	3512.905205675374	7066
4	28268	3513.505463214137	7067
4	28272	3514.178328525867	7068
4	28278	3514.960722777875	7069
4	28280	3515.144287835524	7070
4	28288	3515.835683694588	7071
4	28294	3516.029107882936	7072
4	28296	3516.215577330699	7073
4	28302	3517.111148486642	7074
4	28304	3517.228675683438	7075
4	28306	3517.816088608608	7076
4	28310	3518.110768095551	7077
4	28314	3518.260110925915	7078
4	28316	3518.362927042468	7079
4	28320	3519.009548256282	7080
4	28324	3519.110834432639	7081
4	28332	3519.662552964632	7082
4	28336	3519.875286378825	7083
4	28342	3520.239582643286	7084
4	28348	3520.861972764008	7085
4	28352	3521.008116851175	7086
4	28354	3521.354824281521	7087
4	28356	3521.440192629605	7088
4	28358	3521.488451923381	7089
4	28360	3521.565410064191	7090
4	28366	3522.778556432586	7091
4	28368	3522.969418331665	7092
4	28372	3523.387255523999	7093
4	28376	3523.5904068	7094
4	28380	3524.37554942285	7095
4	28384	3524.698143435011	7096
4	28388	3525.258858124307	7097
4	28392	3525.71699746891	7098
4	28396	3526.56462553016	7099
4	28400	3527.28564539888	7100
4	28404	3527.6151372072	7101
4	28412	3528.885269999893	7102
4	28414	3529.874286230512	7103
4	28416	3529.895908874794	7104
4	28422	3531.097008980246	7105
4	28424	3531.169292709846	7106
4	28430	3531.71611939897	7107
4	28432	3532.167079200642	7108
4	28436	3532.446761166405	7109
4	28444	3533.416584106058	7110
4	28446	3533.645940133981	7111
4	28448	3533.693756490403	7112
4	28452	3533.877424463983	7113
4	28458	3536.44334743642	7114
4	28460	3536.445558539668	7115
4	28466	3537.170265293767	7116
4	28468	3537.18544301056	7117
4	28474	3538.077969087352	7118
4	28482	3538.756440922568	7119
4	28484	3539.161778551607	7120
4	28486	3539.180067614753	7121
4	28492	3539.607517592526	7122
4	28494	3539.631032328787	7123
4	28496	3539.753482804415	7124
4	28500	3540.33397043088	7125
4	28504	3540.99934777895	7126
4	28518	3541.539315868493	7127
4	28520	3541.563986640147	7128
4	28522	3541.687322035194	7129
4	28524	3541.709376861124	7130
4	28528	3541.856424118267	7131
4	28534	3542.134654050173	7132
4	28536	3542.493842456623	7133
4	28538	3542.524473156578	7134
4	28542	3542.712732139044	7135
4	28544	3542.776801485294	7136
4	28548	3543.191034633561	7137
4	28554	3543.415248601972	7138
4	28556	3543.542328080172	7139
4	28560	3544.830878040073	7140
4	28566	3545.287839777926	7141
4	28568	3545.332273080899	7142
4	28572	3545.800843273332	7143
4	28576	3546.838919613373	7144
4	28580	3547.684280654441	7145
4	28584	3548.408275369499	7146
4	28590	3549.195347697883	7147
4	28594	3549.834880130842	7148
4	28596	3549.909388017688	7149
4	28600	3550.950477723563	7150
4	28604	3551.122883070229	7151
4	28616	3552.6934221415	7152
4	28618	3552.944736640031	7153
4	28620	3553.106403258243	7154
4	28624	3553.266977140543	7155
4	28628	3553.321780486188	7156
4	28632	3553.477611921941	7157
4	28636	3553.524130891833	7158
4	28638	3553.57916826322	7159
4	28640	3553.809679801074	7160
4	28644	3554.388193742606	7161
4	28650	3555.033534613969	7162
4	28654	3555.459908391825	7163
4	28658	3555.6650015803	7164
4	28662	3556.044992932834	7165
4	28664	3556.100516488021	7166
4	28668	3556.365718663063	7167
4	28672	3556.999503269744	7168
4	28676	3557.477202740989	7169
4	28684	3558.189409898082	7170
4	28686	3558.255991818695	7171
4	28688	3558.345410355758	7172
4	28692	3559.137520442905	7173
4	28700	3560.264092808502	7174
4	28706	3561.01172245379	7175
4	28708	3561.082740670383	7176
4	28714	3561.600547873561	7177
4	28716	3561.867188483294	7178
4	28720	3562.326495130489	7179
4	28724	3562.586019989556	7180
4	28728	3562.634050443498	7181
4	28730	3562.757433531803	7182
4	28734	3562.969335480426	7183
4	28738	3563.065998712536	7184
4	28742	3563.73761820884	7185
4	28744	3563.777962814058	7186
4	28748	3563.935682648744	7187
4	28752	3564.905959090798	7188
4	28758	3565.461059015642	7189
4	28760	3565.461176956973	7190
4	28764	3565.796585269322	7191
4	28768	3567.077302978191	7192
4	28772	3567.424241585379	7193
4	28778	3567.648008960148	7194
4	28780	3567.659513558098	7195
4	28784	3569.035942926711	7196
4	28788	3569.529412839745	7197
4	28792	3570.429539821988	7198
4	28796	3571.481867926711	7199
4	28802	3573.277091671102	7200
4	28804	3573.294051325285	7201
4	28810	3574.689260845873	7202
4	28812	3575.0733418062	7203
4	28816	3576.468699637085	7204
4	28820	3576.796707909169	7205
4	28826	3577.877813268416	7206
4	28828	3577.924367003685	7207
4	28834	3578.774743607973	7208
4	28836	3578.934886362848	7209
4	28840	3579.961150484103	7210
4	28844	3580.152205771561	7211
4	28848	3580.390585725056	7212
4	28852	3581.891838910012	7213
4	28856	3581.948874822349	7214
4	28860	3582.704085669983	7215
4	28864	3585.420921271853	7216
4	28868	3587.148011359719	7217
4	28872	3587.82316152716	7218
4	28876	3587.859794525797	7219
4	28882	3588.130829808751	7220
4	28884	3588.146904071024	7221
4	28890	3589.495078689673	7222
4	28892	3589.705295374179	7223
4	28896	3589.860363673851	7224
4	28900	3592.389743750423	7225
4	28904	3593.18870788639	7226
4	28908	3593.274374832516	7227
4	28912	3593.616182333468	7228
4	28916	3594.52962168841	7229
4	28920	3594.671312925808	7230
4	28924	3596.091397161202	7231
4	28932	3597.222690620752	7232
4	28936	3597.399894351619	7233
4	28938	3597.432868489302	7234
4	28940	3597.514975363824	7235
4	28944	3597.647999144222	7236
4	28954	3599.506687941587	7237
4	28958	3599.735447950071	7238

