version 2
run Net2-0-20230626-01:26:31-2171
attr configname Net2
attr datetime 20230626-01:26:31
attr experiment Net2
attr inifile omnetpp.ini
attr iterationvars ""
attr iterationvarsf ""
attr measurement ""
attr network Net
attr processid 2171
attr repetition 0
attr replication #0
attr resultdir results
attr runnumber 0
attr seedset 0
param **.source*.meanofMsgSize 2
param **.source*.avgInterArrivalTime 0.5s
param **.queue*.avgServiceTime 0.2s
param **.queue*.isRoundRobin true

vector 0 Net.queue1 qlen:vector ETV
attr interpolationmode sample-hold
attr title "queue length, vector"
vector 1 Net.queue1 queueingTime:vector ETV
attr interpolationmode none
attr title "queueing time at dequeue, vector"
attr unit s
vector 2 Net.queue1 responseTime:vector ETV
attr interpolationmode none
attr title "response time at end of service, vector"
attr unit s
vector 3 Net.sink1 lifetime:vector ETV
attr interpolationmode none
attr title "lifetime of arrived msg, vector"
attr unit s
vector 4 Net.sink1 arrivedMsg:vector ETV
attr interpolationmode none
attr title "number of arrived msg, vector"
0	0	0	0
0	11	1.11852362011	1
0	11	1.11852362011	0
0	17	1.575974542743	1
0	18	1.844099857581	0
0	24	3.547209906232	1
0	24	3.547209906232	0
0	26	3.558153856832	1
0	27	3.881652146297	2
0	27	3.881652146297	1
0	29	3.977870283282	2
0	30	3.9814265481	3
0	30	3.9814265481	2
0	31	3.996163619193	1
0	33	4.078479218442	2
0	33	4.078479218442	1
0	34	4.096711423667	2
0	34	4.096711423667	1
0	35	4.305633925329	0
0	46	5.85141417397	1
0	47	6.183861598726	2
0	47	6.183861598726	1
0	48	6.312203433262	0
0	50	6.633251344674	1
0	50	6.633251344674	0
0	55	8.001212896883	1
0	55	8.001212896883	0
0	64	9.252726629076	1
0	64	9.252726629076	0
0	69	10.544002872457	1
0	69	10.544002872457	0
0	70	10.605458942888	1
0	70	10.605458942888	0
0	75	10.732256490312	1
0	75	10.732256490312	0
0	76	10.900323431434	1
0	76	10.900323431434	0
0	85	11.23416179551	1
0	85	11.23416179551	0
0	90	12.123154422525	1
0	90	12.123154422525	0
0	95	13.28622817502	1
0	95	13.28622817502	0
0	97	13.319088505847	1
0	98	13.401134656368	2
0	98	13.401134656368	1
0	99	13.422046901523	2
0	99	13.422046901523	1
0	100	13.434469959616	0
0	103	13.917142405576	1
0	104	14.134512696507	0
0	106	14.171997909711	1
0	106	14.171997909711	0
0	107	14.219239250928	1
0	107	14.219239250928	0
0	116	14.830807669267	1
0	116	14.830807669267	0
0	122	15.361413891796	1
0	124	15.415231445874	2
0	126	15.503188218587	3
0	127	15.749377758448	2
0	129	15.923760929173	3
0	129	15.923760929173	2
0	130	15.982177035826	1
0	133	16.032559576134	2
0	134	16.089189971243	1
0	137	16.172698080373	2
0	138	16.284562786057	3
0	138	16.284562786057	2
0	139	16.498177225487	1
0	141	16.574488394162	2
0	141	16.574488394162	1
0	142	16.604230848012	0
0	145	16.73428223114	1
0	146	16.905557914667	0
0	148	16.997560706215	1
0	148	16.997560706215	0
0	154	18.234709466281	1
0	155	18.248306153371	2
0	155	18.248306153371	1
0	156	18.472269026522	2
0	156	18.472269026522	1
0	157	18.492475981584	0
0	160	19.144618925923	1
0	161	19.207193656053	0
0	163	19.333660975332	1
0	163	19.333660975332	0
0	169	20.225943039531	1
0	170	20.382975275699	2
0	170	20.382975275699	1
0	171	20.387013301328	2
0	171	20.387013301328	1
0	172	20.39500856114	0
0	178	20.923677028669	1
0	178	20.923677028669	0
0	179	21.012760921053	1
0	179	21.012760921053	0
0	184	22.920390926802	1
0	184	22.920390926802	0
0	185	23.345238366202	1
0	185	23.345238366202	0
0	187	23.427287500304	1
0	188	23.452215241353	0
0	191	23.460436201045	1
0	192	23.501094330969	2
0	192	23.501094330969	1
0	193	23.668313837363	2
0	193	23.668313837363	1
0	195	23.876857959078	2
0	196	24.068961941864	3
0	196	24.068961941864	2
0	197	24.217113731953	3
0	197	24.217113731953	2
0	199	24.232481927687	3
0	200	24.714230203348	4
0	200	24.714230203348	3
0	201	24.885809331563	2
0	203	24.903163428031	1
0	205	25.433014613766	2
0	205	25.433014613766	1
0	206	25.498082696872	0
0	209	25.502634181666	1
0	210	25.574794739692	0
0	224	26.997742383606	1
0	224	26.997742383606	0
0	225	27.001804875365	1
0	225	27.001804875365	0
0	238	28.143599291281	1
0	238	28.143599291281	0
0	240	28.739908880509	1
0	241	28.798627926824	2
0	241	28.798627926824	1
0	243	28.882919366763	2
0	244	29.080832808683	1
0	246	29.250676970996	0
0	256	31.244815482796	1
0	256	31.244815482796	0
0	258	31.421851617656	1
0	260	31.483614941337	2
0	261	31.619507458767	1
0	263	31.955691899676	2
0	263	31.955691899676	1
0	264	32.061836398999	0
0	271	32.355729458654	1
0	272	32.386131385884	0
0	274	33.059005476494	1
0	274	33.059005476494	0
0	284	34.450033203694	1
0	285	34.694192989578	2
0	285	34.694192989578	1
0	287	34.701188602824	2
0	288	34.804472187605	3
0	288	34.804472187605	2
0	289	34.93329312927	3
0	289	34.93329312927	2
0	290	34.93716908554	1
0	292	35.064194628666	0
0	298	35.235909967967	1
0	298	35.235909967967	0
0	304	35.617202944355	1
0	306	35.671476493602	2
0	307	35.758711930308	3
0	307	35.758711930308	2
0	308	35.846117533063	3
0	308	35.846117533063	2
0	309	36.024863348724	3
0	309	36.024863348724	2
0	311	36.093420729897	3
0	312	36.185373745876	2
0	315	36.622925422588	3
0	317	36.816490468663	4
0	318	36.879880841732	5
0	318	36.879880841732	4
0	319	36.910339566783	5
0	319	36.910339566783	4
0	320	37.001974143575	5
0	320	37.001974143575	4
0	321	37.022438266546	5
0	321	37.022438266546	4
0	322	37.136930576832	5
0	322	37.136930576832	4
0	324	37.950807465009	5
0	325	37.964492528934	4
0	328	38.101590421621	5
0	329	38.292672044519	4
0	331	38.411486744184	5
0	331	38.411486744184	4
0	332	38.43260927291	3
0	334	38.45358564003	4
0	334	38.45358564003	3
0	336	38.71010016929	4
0	337	38.957442066047	5
0	337	38.957442066047	4
0	338	39.084134589592	5
0	338	39.084134589592	4
0	340	39.336403931746	5
0	342	39.417338975102	6
0	344	40.430293383654	7
0	345	40.437212693579	6
0	348	40.518956171227	7
0	349	40.579196279024	6
0	352	40.585048026034	7
0	353	40.881160970146	6
0	355	40.987161545773	7
0	355	40.987161545773	6
0	356	41.155537738119	5
0	358	41.185695940158	6
0	358	41.185695940158	5
0	359	41.290269946176	4
0	361	41.297027303286	3
0	363	41.311362380149	4
0	363	41.311362380149	3
0	365	41.408407576697	4
0	367	41.642043859902	5
0	368	42.12133174791	6
0	368	42.12133174791	5
0	369	42.131714258347	4
0	372	42.282210961808	5
0	373	42.534268805588	4
0	375	42.586734667421	3
0	377	42.589091313805	4
0	377	42.589091313805	3
0	378	42.878650130203	4
0	378	42.878650130203	3
0	379	42.967900694307	4
0	379	42.967900694307	3
0	381	43.250499580554	4
0	382	43.544823044727	5
0	382	43.544823044727	4
0	383	43.582482039771	3
0	385	43.665404548303	4
0	385	43.665404548303	3
0	386	43.8126307683	2
0	389	43.943645256565	3
0	390	43.947122871667	4
0	390	43.947122871667	3
0	391	43.991750713287	2
0	393	44.031316614779	1
0	395	44.035055708863	2
0	395	44.035055708863	1
0	396	44.072559499104	0
0	399	44.150634717901	1
0	401	44.277387570473	2
0	402	44.388242043525	1
0	405	44.489216121151	2
0	407	44.957785480013	3
0	408	44.965150901206	4
0	408	44.965150901206	3
0	409	44.971622262135	4
0	409	44.971622262135	3
0	410	45.277788507388	2
0	412	45.313779975698	1
0	415	45.411767493675	2
0	417	45.437608946573	3
0	418	45.452419929606	4
0	418	45.452419929606	3
0	419	45.506753543674	4
0	419	45.506753543674	3
0	421	46.038094399844	4
0	423	46.193578302329	5
0	424	46.482580121273	4
0	427	46.577118129615	5
0	428	46.882014514771	4
0	430	47.143971589043	3
0	433	47.271956661503	4
0	435	47.675946688203	5
0	437	47.795323124627	6
0	438	47.811558455814	5
0	440	47.852764865511	6
0	440	47.852764865511	5
0	441	47.902136719271	4
0	444	47.921122431183	5
0	445	48.479951837651	6
0	445	48.479951837651	5
0	447	48.5937961478	6
0	448	48.600287634956	7
0	448	48.600287634956	6
0	449	48.651890187744	7
0	449	48.651890187744	6
0	450	48.880117768316	7
0	450	48.880117768316	6
0	451	48.938819298701	5
0	453	48.9566501567	4
0	455	48.968606349283	5
0	455	48.968606349283	4
0	456	48.980220821706	5
0	456	48.980220821706	4
0	457	49.094200334767	5
0	457	49.094200334767	4
0	458	49.228023079505	3
0	460	49.302757038384	2
0	462	49.72849105729	1
0	464	49.966862678021	2
0	464	49.966862678021	1
0	466	50.351035488068	2
0	467	50.716201600786	1
0	469	50.721199271449	0
0	472	50.742023348506	1
0	473	51.106871298825	2
0	473	51.106871298825	1
0	474	51.334378999933	2
0	474	51.334378999933	1
0	476	51.422989210659	2
0	477	51.464625146317	1
0	479	51.618449106536	0
0	485	52.114952987493	1
0	485	52.114952987493	0
0	490	54.781776880968	1
0	490	54.781776880968	0
0	491	54.842897861331	1
0	491	54.842897861331	0
0	493	54.851945463608	1
0	494	54.872417067909	0
0	497	54.982121169382	1
0	498	55.156493759026	2
0	498	55.156493759026	1
0	499	55.333994144723	0
0	501	55.412508750361	1
0	501	55.412508750361	0
0	503	55.501046207127	1
0	504	55.768137417728	0
0	506	55.768148488107	1
0	506	55.768148488107	0
0	508	55.996798353576	1
0	510	56.156585681012	2
0	511	56.180312736283	3
0	511	56.180312736283	2
0	512	56.22138229003	1
0	514	56.449193820165	2
0	514	56.449193820165	1
0	515	57.059830754084	0
0	529	59.100549491733	1
0	529	59.100549491733	0
0	530	59.175835362037	1
0	530	59.175835362037	0
0	535	60.230970248126	1
0	535	60.230970248126	0
0	536	60.236169797165	1
0	536	60.236169797165	0
0	538	60.468446359627	1
0	539	60.484839952755	0
0	545	61.172316472661	1
0	545	61.172316472661	0
0	550	61.834155038844	1
0	550	61.834155038844	0
0	559	62.859567823111	1
0	559	62.859567823111	0
0	561	62.891936552341	1
0	562	63.111930357808	2
0	562	63.111930357808	1
0	563	63.152422110548	2
0	563	63.152422110548	1
0	564	63.198270975589	0
0	570	63.836236378466	1
0	570	63.836236378466	0
0	571	63.924127456565	1
0	571	63.924127456565	0
0	573	64.144338549242	1
0	575	64.159801695022	2
0	576	64.180212327361	1
0	578	64.456404946494	0
0	580	64.475838482167	1
0	580	64.475838482167	0
0	582	64.846973202232	1
0	584	64.890527493861	2
0	585	64.943936874298	3
0	585	64.943936874298	2
0	586	65.207062125957	3
0	586	65.207062125957	2
0	588	65.292223375195	3
0	589	65.382705141701	2
0	591	65.429636311552	1
0	593	65.498740228294	2
0	593	65.498740228294	1
0	594	65.566371171263	2
0	594	65.566371171263	1
0	595	65.621476758671	0
0	597	65.847660454509	1
0	597	65.847660454509	0
0	603	66.934754622817	1
0	605	66.939396135006	2
0	606	67.088699780052	3
0	606	67.088699780052	2
0	607	67.396265522947	3
0	607	67.396265522947	2
0	609	67.834390937247	3
0	610	68.22745974206	2
0	612	68.404035851051	1
0	615	68.442236173926	2
0	616	68.444124290068	3
0	616	68.444124290068	2
0	617	68.617837436361	1
0	620	68.774640048702	2
0	621	69.376642192979	3
0	621	69.376642192979	2
0	622	69.563164564033	1
0	624	69.645710537378	2
0	624	69.645710537378	1
0	625	69.694993701821	0
0	628	69.820418335014	1
0	630	69.952206891432	2
0	631	70.346777897258	1
0	633	70.482338297669	0
0	635	71.049666336344	1
0	635	71.049666336344	0
0	636	71.301113735458	1
0	636	71.301113735458	0
0	638	71.443307229168	1
0	639	71.622205488072	0
0	645	72.010389711609	1
0	645	72.010389711609	0
0	647	72.285756319775	1
0	648	72.382676040205	2
0	648	72.382676040205	1
0	650	72.393804428072	2
0	651	72.575078425523	3
0	651	72.575078425523	2
0	653	72.60707233409	3
0	654	72.971628206444	2
0	657	73.365106799003	3
0	659	73.690505470183	4
0	661	73.692533630844	5
0	662	73.773218137419	6
0	662	73.773218137419	5
0	664	73.849532579876	6
0	665	73.865176400974	5
0	668	74.129036414871	6
0	669	74.210503076922	7
0	669	74.210503076922	6
0	671	74.234303058973	7
0	672	74.313046005448	8
0	672	74.313046005448	7
0	674	74.361308748148	8
0	676	74.62184815869	9
0	678	75.042916310109	10
0	679	75.10257265896	11
0	679	75.10257265896	10
0	681	75.253412959133	11
0	682	75.75056525234	12
0	682	75.75056525234	11
0	683	75.856557568194	10
0	685	76.154043519062	9
0	687	76.243073386943	8
0	689	76.324109963411	7
0	691	76.426108130181	8
0	691	76.426108130181	7
0	693	76.43860674944	8
0	694	76.443024028533	9
0	694	76.443024028533	8
0	696	76.700090576268	9
0	697	76.741550461371	8
0	699	77.00018003313	7
0	701	77.002989351378	6
0	703	77.00528800142	5
0	705	77.157772738263	6
0	705	77.157772738263	5
0	706	77.452213569862	4
0	708	77.524862013642	5
0	708	77.524862013642	4
0	709	77.556648649573	5
0	709	77.556648649573	4
0	710	77.985525742476	3
0	712	78.00209819706	2
0	714	78.05980073913	1
0	716	78.078575648587	0
0	719	78.227520465772	1
0	720	78.304851402108	2
0	720	78.304851402108	1
0	722	78.368282477007	2
0	723	78.418030310435	1
0	725	78.771954275077	0
0	728	78.775791642455	1
0	729	79.165965788195	2
0	729	79.165965788195	1
0	730	79.186272604983	2
0	730	79.186272604983	1
0	731	79.249304610726	0
0	745	80.17447261302	1
0	745	80.17447261302	0
0	750	80.74234771828	1
0	750	80.74234771828	0
0	756	81.193086386174	1
0	757	81.304870321423	0
0	760	81.549090418986	1
0	761	81.615619421829	2
0	761	81.615619421829	1
0	762	81.854422095948	2
0	762	81.854422095948	1
0	763	81.900706290339	0
0	766	82.088553873236	1
0	767	82.202349336664	2
0	767	82.202349336664	1
0	768	82.431087460781	0
0	774	82.854244092114	1
0	774	82.854244092114	0
0	775	83.03139622132	1
0	775	83.03139622132	0
0	780	83.166491502216	1
0	780	83.166491502216	0
0	785	84.310039348186	1
0	785	84.310039348186	0
0	786	84.828529069943	1
0	786	84.828529069943	0
0	791	85.077076486772	1
0	791	85.077076486772	0
0	801	86.197223038047	1
0	802	86.570482628422	2
0	802	86.570482628422	1
0	803	86.699464326655	2
0	803	86.699464326655	1
0	804	86.706664892605	2
0	804	86.706664892605	1
0	806	86.715845585098	2
0	807	87.012834576394	3
0	807	87.012834576394	2
0	809	87.122294765691	3
0	810	87.155511432954	2
0	812	87.186568550055	3
0	812	87.186568550055	2
0	813	87.415327625879	1
0	816	87.506421436625	2
0	818	87.57539805259	3
0	819	87.62498544687	2
0	821	87.65678785023	3
0	821	87.65678785023	2
0	823	87.824744219025	3
0	825	87.928336810151	4
0	826	88.283353748139	5
0	826	88.283353748139	4
0	827	88.456341370025	5
0	827	88.456341370025	4
0	828	88.613308773943	3
0	830	88.632668268405	2
0	832	88.754764837405	3
0	832	88.754764837405	2
0	834	89.099956775197	3
0	835	89.237568123507	4
0	835	89.237568123507	3
0	837	89.406758880068	4
0	838	89.559834523331	3
0	840	89.661675020704	4
0	840	89.661675020704	3
0	841	89.68129892523	4
0	841	89.68129892523	3
0	842	90.15007285339	2
0	844	90.261204636022	3
0	844	90.261204636022	2
0	846	90.455077016829	3
0	847	90.495457375011	2
0	849	90.669051371415	3
0	849	90.669051371415	2
0	850	90.748467561419	3
0	850	90.748467561419	2
0	851	91.000395795544	3
0	851	91.000395795544	2
0	853	91.056433908744	3
0	854	91.283152461452	2
0	856	91.546056881069	1
0	859	91.561818490294	2
0	860	91.60094958547	3
0	860	91.60094958547	2
0	861	91.60291247275	3
0	861	91.60291247275	2
0	863	91.649316014403	3
0	864	91.921223697309	2
0	866	91.97424231759	1
0	868	92.096791406563	0
0	870	92.236796533786	1
0	870	92.236796533786	0
0	875	93.411647215581	1
0	875	93.411647215581	0
0	876	93.533858727838	1
0	876	93.533858727838	0
0	881	94.62101984968	1
0	881	94.62101984968	0
0	883	94.652149510018	1
0	884	94.964833712038	2
0	884	94.964833712038	1
0	886	95.849739404713	2
0	888	95.89415559604	3
0	889	95.941533510107	4
0	889	95.941533510107	3
0	891	95.943766359282	4
0	892	96.139789411259	3
0	895	96.197876086308	4
0	896	96.736145342724	3
0	898	96.846486065242	4
0	898	96.846486065242	3
0	899	96.965102384707	2
0	901	97.024968061191	1
0	903	97.285135546683	2
0	903	97.285135546683	1
0	905	97.57817831415	2
0	907	97.595114241771	3
0	908	97.663281377569	2
0	910	97.688796092328	3
0	910	97.688796092328	2
0	911	97.776611489446	1
0	913	97.893965250782	0
0	920	99.200226820104	1
0	921	99.343788132962	0
0	932	101.927892179241	1
0	933	102.03932510704	2
0	933	102.03932510704	1
0	934	102.058633362846	0
0	936	102.179720119174	1
0	936	102.179720119174	0
0	942	102.991293007951	1
0	943	102.999026260404	0
0	945	103.364934691576	1
0	945	103.364934691576	0
0	946	103.37166147576	1
0	946	103.37166147576	0
0	948	103.467854277084	1
0	949	103.519445479748	0
0	956	103.862927700108	1
0	958	103.879429692636	2
0	959	103.984988544306	3
0	959	103.984988544306	2
0	960	104.043377758652	3
0	960	104.043377758652	2
0	962	104.31336062758	3
0	963	104.338262203609	2
0	965	104.362805205072	1
0	968	104.651038562666	2
0	970	104.791326525755	3
0	972	105.025787189391	4
0	974	105.049154640259	5
0	975	105.162317900416	4
0	977	105.197893251987	5
0	977	105.197893251987	4
0	979	105.23473550066	5
0	980	105.554080186965	6
0	980	105.554080186965	5
0	981	105.688868875809	6
0	981	105.688868875809	5
0	982	105.893212545291	6
0	982	105.893212545291	5
0	984	106.057327214197	6
0	986	106.091094292636	7
0	987	106.802777315663	8
0	987	106.802777315663	7
0	989	106.855563727992	8
0	991	106.993716324456	9
0	992	107.126509528947	8
0	994	107.222352067844	9
0	994	107.222352067844	8
0	995	107.278841410236	9
0	995	107.278841410236	8
0	996	107.479828072048	9
0	996	107.479828072048	8
0	998	107.536817980035	9
0	999	107.69906658425	8
0	1001	107.809427008578	9
0	1001	107.809427008578	8
0	1002	107.947129786187	7
0	1004	108.108925725214	6
0	1006	108.220591083067	7
0	1006	108.220591083067	6
0	1007	108.288260306807	7
0	1007	108.288260306807	6
0	1009	108.498687265369	7
0	1010	108.634084234344	8
0	1010	108.634084234344	7
0	1011	108.741263993412	6
0	1013	108.859795476999	5
0	1015	108.949223457518	6
0	1015	108.949223457518	5
0	1017	109.168825246359	6
0	1019	109.394444645604	7
0	1021	109.417994281132	8
0	1022	109.643352473625	7
0	1025	109.71608022683	8
0	1026	109.729053994461	9
0	1026	109.729053994461	8
0	1027	109.788528700043	9
0	1027	109.788528700043	8
0	1029	110.559689371209	9
0	1030	110.635131859309	10
0	1030	110.635131859309	9
0	1031	110.874029848011	8
0	1033	111.344696801626	9
0	1033	111.344696801626	8
0	1034	111.799438234964	9
0	1034	111.799438234964	8
0	1035	111.86979171205	9
0	1035	111.86979171205	8
0	1036	111.895599412687	9
0	1036	111.895599412687	8
0	1038	112.29611722416	9
0	1040	112.439571771852	10
0	1042	112.495544042424	11
0	1043	112.861543462281	12
0	1043	112.861543462281	11
0	1044	113.305786298921	10
0	1046	113.358949608725	9
0	1048	113.447616487925	10
0	1048	113.447616487925	9
0	1049	113.681703633928	8
0	1051	113.77900746188	7
0	1053	113.791033135706	6
0	1056	114.003028178517	7
0	1057	114.288159352575	8
0	1057	114.288159352575	7
0	1058	114.351770261613	6
0	1060	114.380270850743	7
0	1060	114.380270850743	6
0	1061	114.475574014938	5
0	1064	114.5016776406	6
0	1065	114.569333153266	7
0	1065	114.569333153266	6
0	1067	114.697758285411	7
0	1069	114.833536181252	8
0	1070	114.845624969236	9
0	1070	114.845624969236	8
0	1072	114.927818543378	9
0	1073	114.985834071101	8
0	1075	115.351339324664	7
0	1077	115.438072295739	6
0	1079	115.492366289025	7
0	1079	115.492366289025	6
0	1080	115.760546633943	7
0	1080	115.760546633943	6
0	1081	115.900134143709	5
0	1084	116.013431484055	6
0	1085	116.062232773145	5
0	1087	116.221277213407	6
0	1087	116.221277213407	5
0	1089	116.515989308341	6
0	1090	116.625194114051	5
0	1092	116.710976481205	4
0	1094	116.988848182595	3
0	1096	116.993833801741	2
0	1098	117.234345270683	3
0	1098	117.234345270683	2
0	1099	117.266573786448	1
0	1102	117.924445173323	2
0	1103	117.954762595965	3
0	1103	117.954762595965	2
0	1104	118.200906366171	1
0	1106	118.321137295448	0
0	1108	118.568073270659	1
0	1108	118.568073270659	0
0	1117	121.312435291376	1
0	1117	121.312435291376	0
0	1118	121.340584322462	1
0	1118	121.340584322462	0
0	1120	121.344440349498	1
0	1122	121.397138414454	2
0	1123	121.43565225639	1
0	1125	121.887147614541	2
0	1125	121.887147614541	1
0	1126	121.902185976374	0
0	1133	123.405601003614	1
0	1135	123.485966023898	2
0	1137	123.635642525369	3
0	1139	123.757015244049	4
0	1140	123.787978474394	5
0	1140	123.787978474394	4
0	1141	123.948605828778	3
0	1144	124.190661253464	4
0	1146	124.35008177767	5
0	1147	124.692487490958	6
0	1147	124.692487490958	5
0	1148	124.795224613611	4
0	1150	124.800390222496	5
0	1150	124.800390222496	4
0	1151	124.857504006597	3
0	1153	125.295433349509	4
0	1153	125.295433349509	3
0	1154	125.436423213784	4
0	1154	125.436423213784	3
0	1155	125.683040959227	2
0	1157	125.757364110193	1
0	1159	125.822447453625	2
0	1159	125.822447453625	1
0	1160	125.915820322338	2
0	1160	125.915820322338	1
0	1162	126.104613553172	2
0	1164	126.118053862927	3
0	1166	126.32091703486	4
0	1167	126.366318896352	3
0	1169	127.049303876838	2
0	1171	127.445866392893	1
0	1173	127.482789567474	0
0	1175	127.492772687959	1
0	1175	127.492772687959	0
0	1177	127.610473600253	1
0	1179	127.905891210455	2
0	1180	127.956277900472	1
0	1182	128.04196610623	2
0	1182	128.04196610623	1
0	1183	128.184892943706	2
0	1183	128.184892943706	1
0	1185	128.265074128061	2
0	1186	128.454382708444	1
0	1189	128.642680036941	2
0	1190	128.64915842674	3
0	1190	128.64915842674	2
0	1191	129.09588639696	3
0	1191	129.09588639696	2
0	1192	129.141749831287	3
0	1192	129.141749831287	2
0	1194	129.262529077249	3
0	1195	129.36784127095	2
0	1197	129.526815838163	3
0	1197	129.526815838163	2
0	1199	129.826409294036	3
0	1200	129.949597201092	2
0	1202	129.981694022564	3
0	1202	129.981694022564	2
0	1203	130.04814614728	1
0	1206	130.218687642495	2
0	1207	130.436155789256	3
0	1207	130.436155789256	2
0	1208	130.683963090732	3
0	1208	130.683963090732	2
0	1210	130.722694412737	3
0	1211	130.755196247045	4
0	1211	130.755196247045	3
0	1212	130.760162888594	2
0	1214	130.911396138152	1
0	1217	130.955842925956	2
0	1219	131.002720619761	3
0	1220	131.074714675922	4
0	1220	131.074714675922	3
0	1221	131.108073827546	2
0	1223	131.11299655636	3
0	1223	131.11299655636	2
0	1224	131.223850251043	3
0	1224	131.223850251043	2
0	1226	131.263110052196	3
0	1227	131.307746115737	4
0	1227	131.307746115737	3
0	1228	131.309455719466	4
0	1228	131.309455719466	3
0	1229	131.374897795731	2
0	1232	131.749846324019	3
0	1233	132.068776563486	4
0	1233	132.068776563486	3
0	1234	132.093369076864	2
0	1236	132.11431153155	1
0	1238	132.286454473053	2
0	1238	132.286454473053	1
0	1240	132.336881392416	2
0	1241	132.354889411376	1
0	1243	132.577811611976	2
0	1243	132.577811611976	1
0	1245	132.724139786383	2
0	1246	132.835389659798	3
0	1246	132.835389659798	2
0	1247	132.835931034714	1
0	1249	132.887448007982	0
0	1252	132.970360474572	1
0	1253	133.095816900946	2
0	1253	133.095816900946	1
0	1255	133.428996373028	2
0	1256	133.811517246113	1
0	1259	134.326332930027	2
0	1260	134.469647012165	1
0	1262	134.585848743257	2
0	1262	134.585848743257	1
0	1263	134.921905223273	2
0	1263	134.921905223273	1
0	1265	134.922490817137	2
0	1266	135.153000169022	3
0	1266	135.153000169022	2
0	1267	135.234282742371	1
0	1269	135.240189104604	0
0	1272	135.44540346353	1
0	1274	135.496554354035	2
0	1275	135.553120414744	1
0	1278	135.788284440188	2
0	1280	136.02981095232	3
0	1281	136.498399454116	4
0	1281	136.498399454116	3
0	1282	136.51745635069	4
0	1282	136.51745635069	3
0	1283	136.641066826118	4
0	1283	136.641066826118	3
0	1284	136.692758675862	4
0	1284	136.692758675862	3
0	1286	136.851487569923	4
0	1287	137.043448299517	5
0	1287	137.043448299517	4
0	1288	137.238706704111	3
0	1291	137.238794438101	4
0	1292	137.675249481968	5
0	1292	137.675249481968	4
0	1293	137.86814943432	5
0	1293	137.86814943432	4
0	1294	137.94773911325	3
0	1296	137.976388854007	2
0	1298	138.080034423628	3
0	1298	138.080034423628	2
0	1300	138.299371666524	3
0	1301	138.868326160553	2
0	1303	139.062735954249	1
0	1305	139.202456667638	2
0	1305	139.202456667638	1
0	1306	139.297856217827	0
0	1309	139.326397908456	1
0	1311	139.716165422871	2
0	1312	139.80895976116	1
0	1314	140.037282865864	0
0	1316	140.391553529728	1
0	1316	140.391553529728	0
0	1322	141.022095354285	1
0	1324	141.078360327474	2
0	1326	141.268615801755	3
0	1328	141.410152019679	4
0	1329	141.504735229493	3
0	1331	141.576078480028	2
0	1334	141.823814981481	3
0	1335	142.049725690629	2
0	1337	142.231954852243	3
0	1337	142.231954852243	2
0	1338	142.350215409357	3
0	1338	142.350215409357	2
0	1339	142.404588577072	3
0	1339	142.404588577072	2
0	1340	142.881511645718	1
0	1343	142.910931435048	2
0	1345	142.989767461463	3
0	1346	143.055434717885	2
0	1348	143.251882354767	3
0	1348	143.251882354767	2
0	1349	143.267796385786	3
0	1349	143.267796385786	2
0	1351	143.279912255455	3
0	1352	143.357462247108	4
0	1352	143.357462247108	3
0	1353	143.414306195814	2
0	1355	143.835862267495	3
0	1355	143.835862267495	2
0	1356	143.843946583026	3
0	1356	143.843946583026	2
0	1357	143.9578338058	3
0	1357	143.9578338058	2
0	1358	143.97019703553	1
0	1360	144.115998379806	2
0	1360	144.115998379806	1
0	1361	144.128603068657	0
0	1367	144.603539150149	1
0	1367	144.603539150149	0
0	1368	145.060217957033	1
0	1368	145.060217957033	0
0	1373	145.235361027681	1
0	1373	145.235361027681	0
0	1379	145.534429870913	1
0	1380	145.622820366098	0
0	1382	145.832258817196	1
0	1382	145.832258817196	0
0	1384	145.852481598096	1
0	1385	145.927300704953	0
0	1395	148.386646564379	1
0	1395	148.386646564379	0
0	1400	148.986184826144	1
0	1400	148.986184826144	0
0	1401	149.116066971503	1
0	1401	149.116066971503	0
0	1411	150.715468465458	1
0	1412	151.012919093324	2
0	1412	151.012919093324	1
0	1413	151.095259208899	2
0	1413	151.095259208899	1
0	1415	151.163811383751	2
0	1416	151.208310265161	3
0	1416	151.208310265161	2
0	1417	151.236954919457	3
0	1417	151.236954919457	2
0	1418	151.32450281068	3
0	1418	151.32450281068	2
0	1419	151.344865939075	1
0	1421	151.558882437001	0
0	1424	151.613012566969	1
0	1425	151.643015971481	0
0	1427	151.858294063365	1
0	1427	151.858294063365	0
0	1428	151.961383573366	1
0	1428	151.961383573366	0
0	1433	153.310297230549	1
0	1433	153.310297230549	0
0	1434	153.397037124629	1
0	1434	153.397037124629	0
0	1439	156.4273296827	1
0	1439	156.4273296827	0
0	1445	157.06450648652	1
0	1446	157.090456323897	0
0	1448	157.114547977451	1
0	1448	157.114547977451	0
0	1453	157.80478443142	1
0	1453	157.80478443142	0
0	1458	158.021545476361	1
0	1458	158.021545476361	0
0	1460	158.130490212379	1
0	1461	158.1347713867	0
0	1464	158.499558583653	1
0	1465	158.544488018019	0
0	1468	158.598424467624	1
0	1470	158.795033111119	2
0	1471	159.182064852474	3
0	1471	159.182064852474	2
0	1472	159.455675656749	3
0	1472	159.455675656749	2
0	1473	160.020980450862	3
0	1473	160.020980450862	2
0	1475	160.173139649858	3
0	1476	160.397953373703	2
0	1478	160.842709936853	3
0	1478	160.842709936853	2
0	1479	160.944808969394	1
0	1481	161.248482799073	2
0	1481	161.248482799073	1
0	1482	161.344198113287	0
0	1484	161.391731287508	1
0	1484	161.391731287508	0
0	1493	163.196785122202	1
0	1493	163.196785122202	0
0	1494	163.198579399669	1
0	1494	163.198579399669	0
0	1503	164.448750326891	1
0	1503	164.448750326891	0
0	1504	164.485781537588	1
0	1504	164.485781537588	0
0	1506	164.566684414826	1
0	1507	165.324835261612	0
0	1517	166.163640738867	1
0	1517	166.163640738867	0
0	1519	166.327003757169	1
0	1521	166.602572731326	2
0	1522	166.945668892798	3
0	1522	166.945668892798	2
0	1523	166.95376048393	3
0	1523	166.95376048393	2
0	1524	166.978717988402	3
0	1524	166.978717988402	2
0	1525	167.110933948568	1
0	1527	167.174219426806	0
0	1533	167.677567538474	1
0	1533	167.677567538474	0
0	1539	167.775682369837	1
0	1540	167.794114527536	2
0	1540	167.794114527536	1
0	1541	167.896168807088	2
0	1541	167.896168807088	1
0	1542	168.100047844702	0
0	1549	168.412266026175	1
0	1550	168.514199027135	0
0	1552	168.528722238756	1
0	1552	168.528722238756	0
0	1553	168.725079219876	1
0	1553	168.725079219876	0
0	1555	168.954040120322	1
0	1556	169.07073109447	0
0	1558	169.32990665777	1
0	1558	169.32990665777	0
0	1563	169.534511496421	1
0	1563	169.534511496421	0
0	1565	169.701157004224	1
0	1566	169.892842363598	0
0	1568	169.996806752574	1
0	1568	169.996806752574	0
0	1574	170.463976560171	1
0	1575	170.613686907925	2
0	1575	170.613686907925	1
0	1576	170.636945241278	2
0	1576	170.636945241278	1
0	1578	170.71910613535	2
0	1580	170.763649114095	3
0	1582	170.778690511863	4
0	1583	170.788316104723	5
0	1583	170.788316104723	4
0	1584	170.810122477447	5
0	1584	170.810122477447	4
0	1585	171.03933808446	5
0	1585	171.03933808446	4
0	1586	171.443070836445	5
0	1586	171.443070836445	4
0	1588	171.879098949046	5
0	1590	171.879703099985	6
0	1591	171.8869299408	5
0	1593	171.990514629814	4
0	1595	172.626000754107	3
0	1597	172.774545504047	2
0	1599	173.092785956716	3
0	1599	173.092785956716	2
0	1600	173.183643472128	3
0	1600	173.183643472128	2
0	1602	173.263753128829	3
0	1604	173.48318021735	4
0	1605	174.15116096194	5
0	1605	174.15116096194	4
0	1606	174.297185365991	3
0	1609	174.42623777077	4
0	1610	174.5917079385	3
0	1613	174.659814384	4
0	1614	174.79241281608	3
0	1616	174.809204824087	2
0	1619	174.843448467749	3
0	1620	174.963331036247	2
0	1623	175.003947296695	3
0	1624	175.013381692328	4
0	1624	175.013381692328	3
0	1625	175.018433916688	4
0	1625	175.018433916688	3
0	1627	175.05663536701	4
0	1628	175.080021675804	5
0	1628	175.080021675804	4
0	1629	175.093592851414	5
0	1629	175.093592851414	4
0	1630	175.143967808353	5
0	1630	175.143967808353	4
0	1632	175.41716156922	5
0	1633	175.531940160271	6
0	1633	175.531940160271	5
0	1634	175.828902975081	6
0	1634	175.828902975081	5
0	1635	176.261383963626	4
0	1637	176.383295799795	3
0	1640	176.627829892442	4
0	1642	176.829706345999	5
0	1643	176.83843979641	4
0	1645	176.951913420343	5
0	1645	176.951913420343	4
0	1646	177.063267582631	3
0	1648	177.213522057365	2
0	1650	177.28534119393	1
0	1652	177.371325634478	0
0	1659	177.699488141018	1
0	1661	177.714178114659	2
0	1662	177.977755777017	3
0	1662	177.977755777017	2
0	1663	177.997856881764	1
0	1665	178.097560148147	2
0	1665	178.097560148147	1
0	1666	178.507307746862	2
0	1666	178.507307746862	1
0	1668	178.844378338347	2
0	1669	178.928666172038	1
0	1671	178.971482610971	0
0	1674	179.431237202284	1
0	1675	179.845482561257	2
0	1675	179.845482561257	1
0	1676	180.01883077539	2
0	1676	180.01883077539	1
0	1677	180.109513459056	0
0	1680	180.143302710102	1
0	1681	180.231237329867	0
0	1683	180.325683079596	1
0	1683	180.325683079596	0
0	1696	181.420935601623	1
0	1696	181.420935601623	0
0	1698	181.562828151967	1
0	1699	181.569562732484	2
0	1699	181.569562732484	1
0	1700	181.604396576705	2
0	1700	181.604396576705	1
0	1701	181.65747056826	0
0	1703	181.667058008176	1
0	1703	181.667058008176	0
0	1705	181.814541209694	1
0	1706	181.843161695838	0
0	1708	181.882505833564	1
0	1708	181.882505833564	0
0	1717	183.130011487257	1
0	1717	183.130011487257	0
0	1718	183.384333487721	1
0	1718	183.384333487721	0
0	1720	183.445372291709	1
0	1721	183.571935110843	0
0	1724	183.644402794203	1
0	1725	183.713642325931	0
0	1728	183.823028691837	1
0	1729	184.075664528223	0
0	1732	184.091339733323	1
0	1734	184.459118110795	2
0	1735	184.609869522925	3
0	1735	184.609869522925	2
0	1736	185.02963320864	3
0	1736	185.02963320864	2
0	1737	185.036324160465	1
0	1740	185.099516272329	2
0	1742	185.100208428632	3
0	1743	185.129341309215	4
0	1743	185.129341309215	3
0	1745	185.242508520627	4
0	1747	185.670591599329	5
0	1748	185.897724569908	6
0	1748	185.897724569908	5
0	1749	186.020408183133	6
0	1749	186.020408183133	5
0	1750	186.111065077296	4
0	1753	186.186551950787	5
0	1754	186.228673839631	4
0	1757	186.391365530828	5
0	1758	186.398327201599	6
0	1758	186.398327201599	5
0	1759	186.859048576925	4
0	1761	187.821988176871	3
0	1764	187.84182005142	4
0	1765	187.925593988295	5
0	1765	187.925593988295	4
0	1766	188.602742168876	5
0	1766	188.602742168876	4
0	1767	188.616201562317	5
0	1767	188.616201562317	4
0	1768	188.930129233239	5
0	1768	188.930129233239	4
0	1770	188.970363622235	5
0	1772	189.101741327205	6
0	1773	189.161469091179	7
0	1773	189.161469091179	6
0	1774	189.210255025151	5
0	1777	189.488777348546	6
0	1778	189.506846898027	5
0	1780	190.019005680981	4
0	1783	190.175139351461	5
0	1784	190.274622939759	4
0	1786	190.317762908014	5
0	1786	190.317762908014	4
0	1787	190.453989963634	5
0	1787	190.453989963634	4
0	1789	190.476878747676	5
0	1790	190.500015117265	4
0	1793	190.86024143874	5
0	1794	190.871896431749	6
0	1794	190.871896431749	5
0	1796	190.935114042869	6
0	1798	191.114040379033	7
0	1800	191.155171661769	8
0	1801	191.609590826846	9
0	1801	191.609590826846	8
0	1802	191.631200040221	7
0	1805	191.804089946343	8
0	1806	192.372398167685	7
0	1808	192.444936394926	6
0	1810	192.501686415434	7
0	1810	192.501686415434	6
0	1811	192.517356375653	5
0	1813	192.524805594114	6
0	1813	192.524805594114	5
0	1815	192.565925086513	6
0	1817	192.622855415166	7
0	1818	192.635365460815	8
0	1818	192.635365460815	7
0	1819	192.748490045019	8
0	1819	192.748490045019	7
0	1820	192.805110410817	6
0	1822	192.871949493809	5
0	1825	193.042772165859	6
0	1826	193.053432077797	7
0	1826	193.053432077797	6
0	1828	193.782559736525	7
0	1829	193.798406952615	8
0	1829	193.798406952615	7
0	1830	193.798943084282	6
0	1832	193.89839237825	7
0	1832	193.89839237825	6
0	1833	194.434591396199	5
0	1835	194.490052901985	4
0	1837	194.714124718536	5
0	1837	194.714124718536	4
0	1838	194.771767352118	3
0	1840	194.82260828466	4
0	1840	194.82260828466	3
0	1841	194.954703063516	2
0	1843	194.959715981027	3
0	1843	194.959715981027	2
0	1844	194.967878881097	1
0	1846	194.969378149987	2
0	1846	194.969378149987	1
0	1848	195.130827163485	2
0	1849	195.173544633798	1
0	1851	195.268316949597	0
0	1853	195.512572984978	1
0	1853	195.512572984978	0
0	1855	195.721529862781	1
0	1856	195.844051889112	0
0	1858	195.998159353265	1
0	1858	195.998159353265	0
0	1860	196.338806797672	1
0	1861	196.615438781043	0
0	1864	196.797193733515	1
0	1866	197.030629822246	2
0	1867	197.071100729605	3
0	1867	197.071100729605	2
0	1868	197.265496008221	1
0	1870	197.387582716829	0
0	1881	198.662055526701	1
0	1882	198.667380376685	2
0	1882	198.667380376685	1
0	1884	198.891192808229	2
0	1885	198.940861520486	3
0	1885	198.940861520486	2
0	1886	199.07462125732	3
0	1886	199.07462125732	2
0	1887	199.10587978582	1
0	1889	199.105989009812	2
0	1889	199.105989009812	1
0	1890	199.142783798538	0
0	1896	199.504589679585	1
0	1896	199.504589679585	0
0	1897	199.590241285347	1
0	1897	199.590241285347	0
0	1899	199.611375629648	1
0	1901	199.732665109086	2
0	1902	200.129052822343	1
0	1905	200.359204156085	2
0	1907	200.445872916699	3
0	1908	200.453854911102	2
0	1911	200.507330810774	3
0	1912	200.671578145713	2
0	1914	200.874503496566	1
0	1916	201.036261521822	2
0	1916	201.036261521822	1
0	1917	201.370458836861	0
0	1924	201.500497585828	1
0	1926	201.525801690487	2
0	1928	201.699085195052	3
0	1930	201.715487972414	4
0	1931	201.963681985235	5
0	1931	201.963681985235	4
0	1932	202.001660336728	3
0	1935	202.020523368052	4
0	1936	202.35002314102	3
0	1939	202.572746770545	4
0	1940	202.690047926873	5
0	1940	202.690047926873	4
0	1941	202.867788732395	3
0	1944	202.893159806294	4
0	1945	203.295684236991	3
0	1947	203.46685408128	4
0	1947	203.46685408128	3
0	1949	203.553954859384	4
0	1950	203.572287839219	5
0	1950	203.572287839219	4
0	1952	203.787766898018	5
0	1953	203.815059951832	4
0	1956	204.008733492454	5
0	1957	204.254813009765	4
0	1959	204.666431245296	5
0	1959	204.666431245296	4
0	1960	204.667464502517	5
0	1960	204.667464502517	4
0	1962	204.67706401183	5
0	1963	204.701539974254	4
0	1965	205.205458006045	5
0	1965	205.205458006045	4
0	1966	205.212390946557	3
0	1969	205.253269521519	4
0	1971	205.350672569779	5
0	1972	205.460280378313	4
0	1974	205.603002608964	5
0	1974	205.603002608964	4
0	1975	205.633240694253	3
0	1977	205.660562466191	2
0	1980	205.681030116488	3
0	1981	205.749506157182	2
0	1984	205.817812547613	3
0	1986	205.984038508405	4
0	1988	206.040205848731	5
0	1989	206.263090701135	6
0	1989	206.263090701135	5
0	1991	206.364241028573	6
0	1993	206.510505065035	7
0	1995	206.6227086668	8
0	1996	206.923527491626	7
0	1998	207.058939834097	8
0	1998	207.058939834097	7
0	2000	207.130565003328	8
0	2001	207.344983703749	9
0	2001	207.344983703749	8
0	2003	207.353014237821	9
0	2004	207.386024267415	10
0	2004	207.386024267415	9
0	2005	207.563067636345	8
0	2007	207.642052694763	9
0	2007	207.642052694763	8
0	2009	207.733372538738	9
0	2010	207.973771372144	10
0	2010	207.973771372144	9
0	2012	208.029459940727	10
0	2014	208.184361008007	11
0	2015	208.29208779476	12
0	2015	208.29208779476	11
0	2017	208.36146031505	12
0	2018	208.785039822044	13
0	2018	208.785039822044	12
0	2019	208.794460989542	11
0	2022	209.019367430943	12
0	2023	209.054518817948	13
0	2023	209.054518817948	12
0	2024	209.226931143407	11
0	2026	209.321250287497	10
0	2029	209.387264094449	11
0	2030	209.623331251235	12
0	2030	209.623331251235	11
0	2031	209.854084003908	10
0	2033	209.938564693789	11
0	2033	209.938564693789	10
0	2034	210.159835306781	11
0	2034	210.159835306781	10
0	2036	210.181078738235	11
0	2037	210.454530862112	10
0	2040	210.846780913458	11
0	2041	210.876264358489	10
0	2043	211.278166081829	9
0	2045	211.368328043955	10
0	2045	211.368328043955	9
0	2046	211.484764254582	8
0	2048	211.494022155766	7
0	2050	211.627288330971	8
0	2050	211.627288330971	7
0	2051	211.705984810365	8
0	2051	211.705984810365	7
0	2052	211.824960061543	6
0	2054	211.962359188724	7
0	2054	211.962359188724	6
0	2055	212.13015384531	5
0	2057	212.167949548654	6
0	2057	212.167949548654	5
0	2058	212.362082698223	6
0	2058	212.362082698223	5
0	2059	212.379865570692	4
0	2061	212.517768155076	3
0	2063	212.638330336677	4
0	2063	212.638330336677	3
0	2064	213.041493829545	2
0	2066	213.581110438135	3
0	2066	213.581110438135	2
0	2067	213.778740168768	1
0	2070	213.829898763335	2
0	2072	214.016508627513	3
0	2073	214.066818489769	2
0	2075	214.399849435244	1
0	2077	214.638835061918	0
0	2087	215.27603292852	1
0	2087	215.27603292852	0
0	2093	216.34050502737	1
0	2094	216.829215343055	2
0	2094	216.829215343055	1
0	2095	216.867779940815	0
0	2098	216.878834351796	1
0	2099	217.125972481932	2
0	2099	217.125972481932	1
0	2100	217.40181555208	2
0	2100	217.40181555208	1
0	2101	217.413527321745	0
0	2103	217.551102276042	1
0	2103	217.551102276042	0
0	2105	218.029461034811	1
0	2107	218.080173426506	2
0	2108	218.338423502005	1
0	2110	218.505599015513	0
0	2112	218.678248724366	1
0	2112	218.678248724366	0
0	2114	218.733819119006	1
0	2115	218.769995792633	2
0	2115	218.769995792633	1
0	2117	218.943354520791	2
0	2119	219.13221137356	3
0	2120	219.667455474879	4
0	2120	219.667455474879	3
0	2122	219.667688896747	4
0	2123	219.831548988463	3
0	2125	219.96425332545	2
0	2127	219.974758543522	1
0	2130	220.0835103731	2
0	2131	220.437613523245	1
0	2134	220.487952217409	2
0	2135	220.62822420848	1
0	2137	220.886838596055	0
0	2143	221.442311503349	1
0	2143	221.442311503349	0
0	2144	221.712680874729	1
0	2144	221.712680874729	0
0	2153	223.34545020484	1
0	2153	223.34545020484	0
0	2154	223.52114930294	1
0	2154	223.52114930294	0
0	2160	224.151504842897	1
0	2161	224.512980416382	2
0	2161	224.512980416382	1
0	2162	224.593155659111	2
0	2162	224.593155659111	1
0	2163	224.629108476746	0
0	2165	224.965381355795	1
0	2165	224.965381355795	0
0	2170	226.684110261203	1
0	2170	226.684110261203	0
0	2171	226.769559784464	1
0	2171	226.769559784464	0
0	2176	227.890806732083	1
0	2176	227.890806732083	0
0	2181	228.379878539721	1
0	2181	228.379878539721	0
0	2183	228.425885222858	1
0	2184	228.633492924492	0
0	2187	228.67462021157	1
0	2189	228.79735495264	2
0	2190	228.893715452064	3
0	2190	228.893715452064	2
0	2191	228.929148334247	3
0	2191	228.929148334247	2
0	2192	229.373497774747	3
0	2192	229.373497774747	2
0	2193	229.442232851745	1
0	2195	229.683647083925	0
0	2201	230.852338620689	1
0	2201	230.852338620689	0
0	2203	230.960656526519	1
0	2204	231.000041128092	2
0	2204	231.000041128092	1
0	2205	231.185348510199	0
0	2212	231.984188669182	1
0	2214	232.0432967667	2
0	2215	232.116429302997	1
0	2218	232.350436906008	2
0	2219	232.501416470529	1
0	2222	232.540701761055	2
0	2224	232.878552918935	3
0	2226	232.916103504367	4
0	2228	233.080434533202	5
0	2229	233.172409346401	4
0	2231	233.253707859914	5
0	2231	233.253707859914	4
0	2232	233.29254605567	5
0	2232	233.29254605567	4
0	2234	233.744096019446	5
0	2235	233.994378977499	6
0	2235	233.994378977499	5
0	2237	234.037698705095	6
0	2238	234.135549376521	5
0	2240	234.447459632866	4
0	2242	234.491404381966	3
0	2244	234.617295962232	4
0	2244	234.617295962232	3
0	2245	234.770400057001	4
0	2245	234.770400057001	3
0	2246	234.786114902392	2
0	2248	234.854682847564	3
0	2248	234.854682847564	2
0	2249	235.207715203479	1
0	2251	235.280246206087	2
0	2251	235.280246206087	1
0	2252	235.592816516968	0
0	2259	238.323073087717	1
0	2260	238.64542978287	0
0	2262	238.894382198628	1
0	2262	238.894382198628	0
0	2264	238.966644140622	1
0	2265	239.058203107305	0
0	2272	240.467958672871	1
0	2273	240.658113003125	2
0	2273	240.658113003125	1
0	2274	240.772237554725	2
0	2274	240.772237554725	1
0	2275	240.820355360276	2
0	2275	240.820355360276	1
0	2276	240.927174557869	2
0	2276	240.927174557869	1
0	2277	241.222178220783	0
0	2284	241.382077469083	1
0	2285	241.443753591595	2
0	2285	241.443753591595	1
0	2287	241.512479047197	2
0	2288	241.822271857409	3
0	2288	241.822271857409	2
0	2289	242.089280474274	3
0	2289	242.089280474274	2
0	2291	242.10706308445	3
0	2292	242.14166039239	2
0	2295	242.169916528833	3
0	2296	242.286349592403	4
0	2296	242.286349592403	3
0	2297	242.417022285846	2
0	2299	242.468944001781	1
0	2301	242.646274428702	0
0	2308	244.012884822524	1
0	2309	244.06938713317	2
0	2309	244.06938713317	1
0	2310	244.198573523885	2
0	2310	244.198573523885	1
0	2312	244.240930705387	2
0	2314	244.635516788266	3
0	2315	244.732838457968	2
0	2318	245.062282623439	3
0	2319	245.156095227576	4
0	2319	245.156095227576	3
0	2320	245.180723528958	2
0	2322	245.186951715648	1
0	2324	245.242994011269	2
0	2324	245.242994011269	1
0	2325	245.293821193841	0
0	2327	245.32036499981	1
0	2327	245.32036499981	0
0	2329	245.429352031605	1
0	2331	245.865871557466	2
0	2333	245.922720571676	3
0	2334	245.934782727855	2
0	2337	246.092239485506	3
0	2339	246.108685120408	4
0	2340	246.251719869222	5
0	2340	246.251719869222	4
0	2341	246.357794802196	3
0	2343	246.367379185615	4
0	2343	246.367379185615	3
0	2344	246.501835907948	2
0	2347	246.708272968437	3
0	2349	247.152415019516	4
0	2350	247.747322341544	5
0	2350	247.747322341544	4
0	2352	247.852084800726	5
0	2353	247.882034499637	6
0	2353	247.882034499637	5
0	2354	248.075814580215	4
0	2356	248.442089176236	5
0	2356	248.442089176236	4
0	2358	248.533571466571	5
0	2359	248.646209673167	6
0	2359	248.646209673167	5
0	2360	248.674971944125	4
0	2362	248.976236476577	5
0	2362	248.976236476577	4
0	2363	249.511188355349	3
0	2365	249.888418120728	4
0	2365	249.888418120728	3
0	2367	250.017049630112	4
0	2368	250.11061279	3
0	2370	250.151611784811	2
0	2372	250.204504697194	1
0	2375	251.061936573951	2
0	2377	251.131197495006	3
0	2378	251.299768467475	2
0	2380	251.358026164154	1
0	2382	251.372130637073	0
0	2384	251.387237929255	1
0	2384	251.387237929255	0
0	2386	251.450013354633	1
0	2387	251.963186685522	2
0	2387	251.963186685522	1
0	2388	252.021046551156	2
0	2388	252.021046551156	1
0	2389	252.275203775032	0
0	2391	252.394852818103	1
0	2391	252.394852818103	0
0	2396	253.186805417739	1
0	2396	253.186805417739	0
0	2406	255.531521720839	1
0	2407	255.608541387073	2
0	2407	255.608541387073	1
0	2408	255.687481346917	2
0	2408	255.687481346917	1
0	2409	255.947536692808	2
0	2409	255.947536692808	1
0	2410	256.018925820065	0
0	2416	256.06872797051	1
0	2416	256.06872797051	0
0	2417	256.279910150373	1
0	2417	256.279910150373	0
0	2419	256.305378055597	1
0	2420	256.415614060069	0
0	2423	256.517043258624	1
0	2424	256.544609227607	2
0	2424	256.544609227607	1
0	2425	256.558309363963	2
0	2425	256.558309363963	1
0	2426	256.620058517551	2
0	2426	256.620058517551	1
0	2427	256.622850931202	0
0	2433	258.316432410243	1
0	2433	258.316432410243	0
0	2435	258.524270639168	1
0	2436	258.542480578029	2
0	2436	258.542480578029	1
0	2437	258.587268770118	0
0	2440	258.656756707027	1
0	2441	258.661663971803	0
0	2447	259.603323875833	1
0	2447	259.603323875833	0
0	2452	259.876774869606	1
0	2452	259.876774869606	0
0	2454	259.898511465605	1
0	2455	260.108075022837	0
0	2457	260.251244312301	1
0	2457	260.251244312301	0
0	2459	260.297825880823	1
0	2461	260.329177666949	2
0	2462	260.608287135818	3
0	2462	260.608287135818	2
0	2463	261.281742798257	1
0	2465	261.492409920965	0
0	2468	261.505205609485	1
0	2470	261.587658987456	2
0	2472	261.587991205568	3
0	2473	261.88421274506	2
0	2475	261.889888934816	3
0	2475	261.889888934816	2
0	2476	261.955125094321	1
0	2478	261.996148489423	0
0	2484	263.035893249018	1
0	2484	263.035893249018	0
0	2485	263.05895381379	1
0	2485	263.05895381379	0
0	2491	264.310482229434	1
0	2492	264.335356291341	2
0	2492	264.335356291341	1
0	2493	264.597577384073	2
0	2493	264.597577384073	1
0	2494	264.744653832548	2
0	2494	264.744653832548	1
0	2495	264.787502016909	2
0	2495	264.787502016909	1
0	2497	264.820562260113	2
0	2498	264.888974548124	1
0	2501	264.960170279255	2
0	2502	265.573281897357	1
0	2504	265.795691674628	2
0	2504	265.795691674628	1
0	2506	265.947253624415	2
0	2508	265.969180560251	3
0	2509	265.987979095808	2
0	2511	266.505605829082	3
0	2511	266.505605829082	2
0	2513	266.572595070896	3
0	2515	266.944370314553	4
0	2516	266.994629997422	5
0	2516	266.994629997422	4
0	2518	267.163022242569	5
0	2519	267.303791239205	4
0	2521	267.316599942819	3
0	2523	267.74920258263	4
0	2523	267.74920258263	3
0	2524	267.770275281105	4
0	2524	267.770275281105	3
0	2525	267.791403336216	2
0	2528	267.866069001102	3
0	2529	267.867918511029	4
0	2529	267.867918511029	3
0	2530	268.490599047123	4
0	2530	268.490599047123	3
0	2531	268.681531580765	4
0	2531	268.681531580765	3
0	2532	268.706603353296	2
0	2534	268.867391866845	3
0	2534	268.867391866845	2
0	2535	268.955501022877	1
0	2537	269.025682157218	0
0	2543	269.634349170484	1
0	2543	269.634349170484	0
0	2548	271.237538958018	1
0	2548	271.237538958018	0
0	2550	271.443277357733	1
0	2551	271.534726894718	2
0	2551	271.534726894718	1
0	2553	271.80921087749	2
0	2554	272.230565734303	3
0	2554	272.230565734303	2
0	2556	272.235216616197	3
0	2557	272.358454332983	2
0	2559	272.49118386803	1
0	2562	272.523571093745	2
0	2563	272.536512811717	3
0	2563	272.536512811717	2
0	2564	272.583324220975	3
0	2564	272.583324220975	2
0	2565	272.671882205384	3
0	2565	272.671882205384	2
0	2566	272.765995100626	1
0	2569	272.799037081024	2
0	2570	272.801744911314	3
0	2570	272.801744911314	2
0	2571	273.053524112344	3
0	2571	273.053524112344	2
0	2573	273.0901747466	3
0	2574	273.114503311208	4
0	2574	273.114503311208	3
0	2576	273.45931231106	4
0	2577	273.879248425942	3
0	2579	273.925398793337	2
0	2581	274.264359078246	3
0	2581	274.264359078246	2
0	2582	274.337754053822	3
0	2582	274.337754053822	2
0	2583	274.498606153386	3
0	2583	274.498606153386	2
0	2585	274.642775047637	3
0	2586	275.33553621548	2
0	2588	275.391817362353	1
0	2590	275.415241530164	2
0	2590	275.415241530164	1
0	2591	275.460144432581	2
0	2591	275.460144432581	1
0	2592	275.65944502067	0
0	2598	276.468011721138	1
0	2598	276.468011721138	0
0	2607	277.425198271486	1
0	2607	277.425198271486	0
0	2621	278.722840327263	1
0	2622	279.165085363351	0
0	2629	279.632887436612	1
0	2630	279.688659243223	2
0	2630	279.688659243223	1
0	2632	279.690124801308	2
0	2634	279.815136944092	3
0	2635	280.262100457764	2
0	2637	280.341273542271	1
0	2639	280.362890003727	2
0	2639	280.362890003727	1
0	2641	280.390710826167	2
0	2642	280.402940594711	3
0	2642	280.402940594711	2
0	2643	280.467712936181	3
0	2643	280.467712936181	2
0	2645	280.481645397208	3
0	2646	280.522729398933	4
0	2646	280.522729398933	3
0	2648	280.606214844793	4
0	2649	280.608854500152	3
0	2651	280.61383131648	2
0	2653	280.704179757716	1
0	2655	280.905197002283	2
0	2655	280.905197002283	1
0	2656	280.939923377041	2
0	2656	280.939923377041	1
0	2657	280.992344770748	0
0	2659	281.199322656767	1
0	2659	281.199322656767	0
0	2668	282.496283401413	1
0	2668	282.496283401413	0
0	2674	284.349737463594	1
0	2675	284.548087223313	2
0	2675	284.548087223313	1
0	2676	285.005021051104	2
0	2676	285.005021051104	1
0	2677	285.038936379116	0
0	2680	285.044953508332	1
0	2681	285.064260534655	0
0	2684	285.497608679225	1
0	2685	285.510699223176	2
0	2685	285.510699223176	1
0	2686	285.517570224608	2
0	2686	285.517570224608	1
0	2687	285.521222644506	2
0	2687	285.521222644506	1
0	2688	285.538525199799	2
0	2688	285.538525199799	1
0	2690	285.552280935993	2
0	2691	285.717130577713	1
0	2694	285.838216318495	2
0	2696	286.063884951819	3
0	2697	286.086671901776	2
0	2699	286.157765221799	3
0	2699	286.157765221799	2
0	2701	286.205578876906	3
0	2702	286.293847192307	4
0	2702	286.293847192307	3
0	2703	286.48576018801	2
0	2706	286.538609627864	3
0	2707	286.663180109827	2
0	2709	286.902202708777	3
0	2709	286.902202708777	2
0	2711	287.147249382566	3
0	2712	287.44008658646	4
0	2712	287.44008658646	3
0	2713	287.501328499913	4
0	2713	287.501328499913	3
0	2715	287.607541294115	4
0	2717	287.680371293199	5
0	2718	287.682199658616	4
0	2720	287.747670531809	5
0	2720	287.747670531809	4
0	2721	288.266780153016	3
0	2724	288.317329102006	4
0	2725	288.58594034443	5
0	2725	288.58594034443	4
0	2726	288.695941817249	3
0	2728	288.998230568818	4
0	2728	288.998230568818	3
0	2729	289.042607172431	4
0	2729	289.042607172431	3
0	2730	289.421210139123	4
0	2730	289.421210139123	3
0	2732	289.491328303314	4
0	2733	289.512817347994	3
0	2735	289.863769085936	2
0	2738	290.015574412069	3
0	2739	290.389920719167	2
0	2741	290.468045519425	1
0	2743	290.806773351872	0
0	2746	291.02375487151	1
0	2747	291.031364273244	0
0	2761	292.402099841172	1
0	2761	292.402099841172	0
0	2762	292.702555722747	1
0	2762	292.702555722747	0
0	2771	293.103960094965	1
0	2771	293.103960094965	0
0	2776	294.639472150419	1
0	2776	294.639472150419	0
0	2781	295.552962601455	1
0	2781	295.552962601455	0
0	2783	295.64040597129	1
0	2784	295.712153355254	2
0	2784	295.712153355254	1
0	2785	296.009295908784	2
0	2785	296.009295908784	1
0	2786	296.030059442726	0
0	2788	296.238440421488	1
0	2788	296.238440421488	0
0	2790	296.484714282997	1
0	2792	296.500756193262	2
0	2793	296.561405780385	1
0	2795	296.563289661697	2
0	2795	296.563289661697	1
0	2796	296.573760499116	2
0	2796	296.573760499116	1
0	2797	296.595364408319	2
0	2797	296.595364408319	1
0	2798	296.792685970239	0
0	2805	297.356164027292	1
0	2806	297.361973937532	2
0	2806	297.361973937532	1
0	2807	297.658763430937	0
0	2809	297.670285321094	1
0	2809	297.670285321094	0
0	2814	298.642599232785	1
0	2814	298.642599232785	0
0	2819	300.683545846839	1
0	2819	300.683545846839	0
0	2820	300.708798112946	1
0	2820	300.708798112946	0
0	2833	305.456999915217	1
0	2833	305.456999915217	0
0	2835	305.461206839173	1
0	2837	305.563991743575	2
0	2839	305.619310121577	3
0	2841	305.694217918576	4
0	2842	305.875543219482	3
0	2844	305.876476359693	2
0	2846	306.072374375938	3
0	2846	306.072374375938	2
0	2847	306.183000620162	1
0	2849	306.190246672735	0
0	2852	306.298611362937	1
0	2853	306.408492856053	2
0	2853	306.408492856053	1
0	2855	306.555432980899	2
0	2856	306.570734474926	1
0	2858	306.583682473866	0
0	2861	306.775802904343	1
0	2862	306.783464027848	0
0	2865	306.868553821156	1
0	2866	306.991341765659	2
0	2866	306.991341765659	1
0	2867	307.02413522668	2
0	2867	307.02413522668	1
0	2868	307.069001717169	2
0	2868	307.069001717169	1
0	2870	307.33876449006	2
0	2871	307.396427722464	1
0	2874	307.519430817997	2
0	2875	307.56489034606	1
0	2877	307.617242687994	2
0	2877	307.617242687994	1
0	2878	307.707705226129	2
0	2878	307.707705226129	1
0	2879	307.719542865682	0
0	2885	309.403708166286	1
0	2885	309.403708166286	0
0	2887	309.626128026333	1
0	2888	310.306265229468	2
0	2888	310.306265229468	1
0	2890	310.318678454527	2
0	2892	310.381980144815	3
0	2893	310.488683130116	4
0	2893	310.488683130116	3
0	2895	310.652226840827	4
0	2896	310.967477290444	3
0	2898	311.02930760069	4
0	2898	311.02930760069	3
0	2900	311.243898743382	4
0	2902	311.394030783057	5
0	2903	311.525507255891	6
0	2903	311.525507255891	5
0	2905	312.103839950147	6
0	2907	312.450434945938	7
0	2908	312.514664794729	8
0	2908	312.514664794729	7
0	2909	313.135090909564	6
0	2911	313.350033387512	5
0	2913	314.125425508206	6
0	2913	314.125425508206	5
0	2914	314.658505228682	6
0	2914	314.658505228682	5
0	2915	315.054013616476	4
0	2917	315.26025245262	3
0	2920	315.283802724214	4
0	2921	315.349227912281	5
0	2921	315.349227912281	4
0	2922	315.424901653694	3
0	2924	315.628460711071	4
0	2924	315.628460711071	3
0	2925	316.095025974522	2
0	2927	316.207448626903	3
0	2927	316.207448626903	2
0	2929	316.377097154758	3
0	2930	316.717898800946	4
0	2930	316.717898800946	3
0	2931	316.738503894584	2
0	2933	316.877977342645	3
0	2933	316.877977342645	2
0	2934	316.938444741941	3
0	2934	316.938444741941	2
0	2936	317.112213752231	3
0	2937	317.246976842553	2
0	2939	317.440521850178	1
0	2941	317.756078083011	2
0	2941	317.756078083011	1
0	2942	317.789617392734	2
0	2942	317.789617392734	1
0	2944	317.801422083182	2
0	2945	317.861138514441	1
0	2947	318.020327968234	2
0	2947	318.020327968234	1
0	2948	318.072048622182	2
0	2948	318.072048622182	1
0	2949	318.20028340137	0
0	2952	318.203394813011	1
0	2953	318.251819166242	2
0	2953	318.251819166242	1
0	2954	318.256137182391	0
0	2957	318.358662636847	1
0	2959	318.531443505204	2
0	2960	318.710854087313	1
0	2962	318.75673959162	0
0	2972	320.849582355168	1
0	2972	320.849582355168	0
0	2978	321.235367361481	1
0	2979	321.571563306905	2
0	2979	321.571563306905	1
0	2980	321.66285602971	0
0	2982	321.75935686662	1
0	2982	321.75935686662	0
0	2987	322.523637879679	1
0	2987	322.523637879679	0
0	2988	322.527223566554	1
0	2988	322.527223566554	0
0	2994	322.843958232479	1
0	2995	323.108274375821	2
0	2995	323.108274375821	1
0	2996	323.129398360421	2
0	2996	323.129398360421	1
0	2997	323.184468965899	0
0	2999	323.588122506242	1
0	2999	323.588122506242	0
0	3004	324.140673187511	1
0	3004	324.140673187511	0
0	3006	324.399266964293	1
0	3007	324.458068132966	2
0	3007	324.458068132966	1
0	3008	324.513622731789	2
0	3008	324.513622731789	1
0	3010	324.965105998169	2
0	3011	325.069309890113	1
0	3013	325.127506914285	2
0	3013	325.127506914285	1
0	3014	325.148092977144	2
0	3014	325.148092977144	1
0	3015	325.357504789174	0
0	3018	325.450400698077	1
0	3019	325.788960082924	2
0	3019	325.788960082924	1
0	3020	325.797670211185	0
0	3027	326.211021787086	1
0	3028	326.389521534131	2
0	3028	326.389521534131	1
0	3029	326.42617052708	2
0	3029	326.42617052708	1
0	3030	326.490122769155	2
0	3030	326.490122769155	1
0	3032	326.63349940855	2
0	3033	326.835209174097	1
0	3035	326.86855768499	0
0	3038	327.236367636024	1
0	3039	327.297806641901	2
0	3039	327.297806641901	1
0	3040	327.612542012065	2
0	3040	327.612542012065	1
0	3041	327.910648770912	2
0	3041	327.910648770912	1
0	3042	328.07050046634	2
0	3042	328.07050046634	1
0	3044	328.935594819175	2
0	3045	329.101624101951	1
0	3047	329.19122759738	0
0	3053	329.496293675554	1
0	3053	329.496293675554	0
0	3059	331.59610383234	1
0	3060	331.883267491097	0
0	3062	332.094673871927	1
0	3062	332.094673871927	0
0	3063	332.108141605898	1
0	3063	332.108141605898	0
0	3072	333.44707773021	1
0	3072	333.44707773021	0
0	3074	333.819831139913	1
0	3076	334.179766402801	2
0	3077	334.255559684217	1
0	3080	334.311955271387	2
0	3081	334.547931147538	3
0	3081	334.547931147538	2
0	3082	334.685974861493	3
0	3082	334.685974861493	2
0	3084	334.687041315101	3
0	3085	334.740211483401	4
0	3085	334.740211483401	3
0	3087	334.845292077854	4
0	3088	334.880225412546	5
0	3088	334.880225412546	4
0	3089	334.88571573208	3
0	3091	335.128647686863	4
0	3091	335.128647686863	3
0	3092	335.146234355924	4
0	3092	335.146234355924	3
0	3094	335.22527792013	4
0	3096	335.589272898551	5
0	3097	335.742520971669	6
0	3097	335.742520971669	5
0	3098	335.779528286626	4
0	3100	335.906959844911	3
0	3102	336.000660835473	2
0	3105	336.109195489341	3
0	3107	336.116641117097	4
0	3108	336.215366295147	3
0	3110	336.287644051676	4
0	3110	336.287644051676	3
0	3111	336.477873354402	2
0	3113	336.565850242167	3
0	3113	336.565850242167	2
0	3114	336.847752993939	1
0	3117	336.928241355323	2
0	3118	337.180217471351	3
0	3118	337.180217471351	2
0	3120	337.35913089981	3
0	3121	337.363943006847	4
0	3121	337.363943006847	3
0	3122	337.38023840812	4
0	3122	337.38023840812	3
0	3123	337.63866536368	2
0	3126	337.675787487908	3
0	3127	337.731481428597	4
0	3127	337.731481428597	3
0	3128	337.75647882161	2
0	3130	337.989867811563	1
0	3132	338.3254363693	2
0	3132	338.3254363693	1
0	3134	338.403269104146	2
0	3135	338.571624578774	1
0	3138	339.132078503275	2
0	3139	339.239330048485	1
0	3141	339.398258100826	2
0	3141	339.398258100826	1
0	3142	339.546723265691	2
0	3142	339.546723265691	1
0	3143	339.703492031416	2
0	3143	339.703492031416	1
0	3145	339.755587320127	2
0	3146	340.138010542166	3
0	3146	340.138010542166	2
0	3148	340.750680760433	3
0	3149	340.766720458878	2
0	3152	340.913538864103	3
0	3153	341.08591906334	4
0	3153	341.08591906334	3
0	3154	341.301663672483	2
0	3156	341.470321008633	3
0	3156	341.470321008633	2
0	3157	341.643934426295	1
0	3160	341.674001797288	2
0	3161	341.903482014917	3
0	3161	341.903482014917	2
0	3163	341.979462567161	3
0	3165	341.998153306785	4
0	3167	342.077885753038	5
0	3168	342.480078698858	4
0	3171	342.783768203945	5
0	3173	342.790634001436	6
0	3174	343.004884292604	7
0	3174	343.004884292604	6
0	3175	343.054540869272	5
0	3178	343.118002616296	6
0	3180	343.211128242242	7
0	3182	343.231134353364	8
0	3184	343.51232156184	9
0	3185	343.552690323158	8
0	3187	343.704204049084	9
0	3187	343.704204049084	8
0	3189	343.80624595172	9
0	3190	343.843793100671	10
0	3190	343.843793100671	9
0	3191	344.051227477235	8
0	3193	344.207327155107	9
0	3193	344.207327155107	8
0	3194	344.291907378271	7
0	3197	344.404899851723	8
0	3198	344.448233323799	7
0	3200	344.524889604871	8
0	3200	344.524889604871	7
0	3201	344.672681812779	8
0	3201	344.672681812779	7
0	3202	344.709500547716	8
0	3202	344.709500547716	7
0	3203	344.722329506218	6
0	3205	344.88477564917	5
0	3208	344.955026546714	6
0	3210	345.123780411789	7
0	3211	345.218251457511	6
0	3213	345.892973418703	5
0	3215	346.098548478656	4
0	3218	346.283393991838	5
0	3219	346.292131547025	6
0	3219	346.292131547025	5
0	3220	346.367073433102	4
0	3223	346.763903731814	5
0	3224	347.212126813405	4
0	3226	347.294347325092	5
0	3226	347.294347325092	4
0	3227	347.369603535782	3
0	3229	347.482109959642	4
0	3229	347.482109959642	3
0	3231	347.488137471426	4
0	3232	347.57310585994	3
0	3234	347.577622797675	4
0	3234	347.577622797675	3
0	3236	347.600501604096	4
0	3237	347.711176441207	3
0	3239	347.852321720942	2
0	3241	347.877513617997	3
0	3241	347.877513617997	2
0	3242	347.908652437079	3
0	3242	347.908652437079	2
0	3243	347.913755036822	1
0	3245	348.014668911096	0
0	3251	348.842760712946	1
0	3251	348.842760712946	0
0	3256	349.274082003732	1
0	3256	349.274082003732	0
0	3257	349.48077233268	1
0	3257	349.48077233268	0
0	3267	350.529861056054	1
0	3269	350.600818952891	2
0	3271	350.708181183258	3
0	3272	350.911580685613	2
0	3275	351.286514553978	3
0	3277	351.405200173596	4
0	3279	351.428185383126	5
0	3280	351.484883405075	6
0	3280	351.484883405075	5
0	3281	351.561001164352	4
0	3283	351.576285373883	5
0	3283	351.576285373883	4
0	3284	351.647263625257	5
0	3284	351.647263625257	4
0	3285	352.300463712394	3
0	3287	352.359355047677	4
0	3287	352.359355047677	3
0	3289	352.412536584825	4
0	3290	352.645011043827	3
0	3293	352.671648308704	4
0	3295	353.053409442159	5
0	3296	353.890224683717	4
0	3298	354.058941603273	5
0	3298	354.058941603273	4
0	3299	354.159979946792	3
0	3301	354.192810034745	4
0	3301	354.192810034745	3
0	3302	354.215372666363	4
0	3302	354.215372666363	3
0	3303	354.412791002739	4
0	3303	354.412791002739	3
0	3305	354.496424488609	4
0	3306	354.517902329946	3
0	3308	354.65391178627	2
0	3310	354.776348831917	3
0	3310	354.776348831917	2
0	3311	354.990379267845	1
0	3313	355.134067496838	2
0	3313	355.134067496838	1
0	3314	355.257694071348	0
0	3321	356.091907076455	1
0	3322	356.382614799559	2
0	3322	356.382614799559	1
0	3324	356.697200375165	2
0	3325	356.914783541462	3
0	3325	356.914783541462	2
0	3327	356.93096284327	3
0	3328	356.943024211741	2
0	3330	357.026079741101	1
0	3333	357.183893218221	2
0	3334	357.269830400317	3
0	3334	357.269830400317	2
0	3335	357.34370114188	3
0	3335	357.34370114188	2
0	3337	357.351549539678	3
0	3338	357.365661453201	4
0	3338	357.365661453201	3
0	3339	357.415810927115	2
0	3341	357.662732252344	1
0	3343	357.924600772772	2
0	3343	357.924600772772	1
0	3344	358.11564681258	0
0	3346	358.131222135772	1
0	3346	358.131222135772	0
0	3355	359.455945156768	1
0	3355	359.455945156768	0
0	3361	360.544931913527	1
0	3362	360.699022155968	2
0	3362	360.699022155968	1
0	3363	360.853436764765	2
0	3363	360.853436764765	1
0	3364	360.915002326696	2
0	3364	360.915002326696	1
0	3365	361.470042653786	2
0	3365	361.470042653786	1
0	3366	361.491420333163	0
0	3372	362.0383251717	1
0	3372	362.0383251717	0
0	3377	363.270759261611	1
0	3377	363.270759261611	0
0	3386	365.96797414419	1
0	3386	365.96797414419	0
0	3388	366.248186551274	1
0	3390	366.256379710066	2
0	3391	366.33824202732	1
0	3393	366.372466467914	2
0	3393	366.372466467914	1
0	3395	366.548860766312	2
0	3397	366.742776219023	3
0	3398	366.829195108466	4
0	3398	366.829195108466	3
0	3399	366.862672992147	4
0	3399	366.862672992147	3
0	3400	367.007298254877	4
0	3400	367.007298254877	3
0	3401	367.040448342029	4
0	3401	367.040448342029	3
0	3403	367.064178961415	4
0	3404	367.070715159545	3
0	3406	367.109659296706	2
0	3408	367.464611864208	1
0	3410	367.50921034805	2
0	3410	367.50921034805	1
0	3411	367.521141088478	2
0	3411	367.521141088478	1
0	3413	367.688127903209	2
0	3414	367.692339706577	1
0	3417	367.707521538861	2
0	3418	367.94559379147	3
0	3418	367.94559379147	2
0	3420	368.018446733857	3
0	3421	368.165617770219	2
0	3423	368.3676654221	1
0	3425	368.519306816176	0
0	3427	368.651105354795	1
0	3427	368.651105354795	0
0	3436	370.012938714937	1
0	3436	370.012938714937	0
0	3438	370.479943631187	1
0	3439	370.887281961884	0
0	3441	370.976368566228	1
0	3441	370.976368566228	0
0	3446	371.879471466727	1
0	3446	371.879471466727	0
0	3452	373.886697883122	1
0	3454	374.015915523143	2
0	3456	374.311927324235	3
0	3457	374.550259936001	4
0	3457	374.550259936001	3
0	3458	374.591649322652	4
0	3458	374.591649322652	3
0	3459	374.641809842444	4
0	3459	374.641809842444	3
0	3460	374.740949423658	4
0	3460	374.740949423658	3
0	3461	374.877171507393	2
0	3464	375.218900322021	3
0	3466	375.279852720088	4
0	3468	375.296679565755	5
0	3469	375.587760236914	6
0	3469	375.587760236914	5
0	3470	375.74790402678	4
0	3472	376.090858938982	3
0	3475	376.091784328349	4
0	3477	376.535954522344	5
0	3479	376.559243951884	6
0	3481	376.669556564485	7
0	3482	376.877983422137	8
0	3482	376.877983422137	7
0	3483	377.061881178086	8
0	3483	377.061881178086	7
0	3484	377.062104539389	6
0	3486	377.357725837536	5
0	3488	377.40153120643	6
0	3488	377.40153120643	5
0	3489	377.508106645623	4
0	3492	377.564267897861	5
0	3493	377.575801132067	4
0	3495	377.602232328893	5
0	3495	377.602232328893	4
0	3496	377.678560618489	5
0	3496	377.678560618489	4
0	3497	378.071390075759	5
0	3497	378.071390075759	4
0	3499	378.344281174373	5
0	3500	378.846627012915	6
0	3500	378.846627012915	5
0	3501	378.865735549145	6
0	3501	378.865735549145	5
0	3502	379.028093627574	4
0	3504	379.167308812414	3
0	3507	379.408588922434	4
0	3508	379.437960520232	3
0	3511	379.56871949335	4
0	3513	379.650184738032	5
0	3514	379.915694545944	4
0	3517	380.058728148387	5
0	3518	380.211426322723	4
0	3520	380.724629771165	3
0	3523	380.758086259427	4
0	3524	380.828348690436	5
0	3524	380.828348690436	4
0	3525	381.362722336224	5
0	3525	381.362722336224	4
0	3526	381.779334064577	5
0	3526	381.779334064577	4
0	3527	382.016425709488	3
0	3529	382.031764400894	4
0	3529	382.031764400894	3
0	3530	382.332997871698	4
0	3530	382.332997871698	3
0	3531	382.468046114721	4
0	3531	382.468046114721	3
0	3532	382.781719261547	4
0	3532	382.781719261547	3
0	3534	382.7829789275	4
0	3535	383.034576736474	3
0	3537	383.580578228149	2
0	3539	383.902331290995	1
0	3542	383.967844407954	2
0	3543	384.029151587683	1
0	3546	384.089491748684	2
0	3547	384.167155916107	3
0	3547	384.167155916107	2
0	3548	384.373719109383	1
0	3550	384.403520493003	2
0	3550	384.403520493003	1
0	3551	384.480482376708	0
0	3553	384.523614400749	1
0	3553	384.523614400749	0
0	3558	384.765297735035	1
0	3558	384.765297735035	0
0	3563	385.176173884891	1
0	3563	385.176173884891	0
0	3564	385.191209748612	1
0	3564	385.191209748612	0
0	3569	385.769596636944	1
0	3569	385.769596636944	0
0	3570	386.096423148186	1
0	3570	386.096423148186	0
0	3579	387.675154170587	1
0	3579	387.675154170587	0
0	3581	387.690111323002	1
0	3583	387.720920273367	2
0	3585	387.936520397546	3
0	3587	388.008702791346	4
0	3588	388.042473206143	3
0	3591	388.123015660137	4
0	3592	388.247117363362	5
0	3592	388.247117363362	4
0	3593	388.384382600926	3
0	3595	388.39305900731	2
0	3597	388.39712837795	3
0	3597	388.39712837795	2
0	3598	388.541635476755	3
0	3598	388.541635476755	2
0	3599	388.673077298378	1
0	3602	388.706431757367	2
0	3603	388.831391739863	1
0	3606	388.914265809768	2
0	3607	388.945890465594	3
0	3607	388.945890465594	2
0	3608	388.997879878952	3
0	3608	388.997879878952	2
0	3610	389.098825983874	3
0	3611	389.626919437512	4
0	3611	389.626919437512	3
0	3613	389.647140968543	4
0	3614	389.741155614587	3
0	3616	389.88612250478	2
0	3619	390.094071462868	3
0	3620	390.142431205382	4
0	3620	390.142431205382	3
0	3621	390.206302464761	2
0	3623	390.210280086233	3
0	3623	390.210280086233	2
0	3625	390.293530081957	3
0	3626	390.368636495215	2
0	3628	390.428269647491	3
0	3628	390.428269647491	2
0	3629	390.436267928221	3
0	3629	390.436267928221	2
0	3630	390.705871203358	3
0	3630	390.705871203358	2
0	3631	390.984171164805	1
0	3633	391.182112245703	0
0	3636	391.256073851	1
0	3637	391.488389117628	2
0	3637	391.488389117628	1
0	3638	391.760744041852	2
0	3638	391.760744041852	1
0	3640	391.988568286756	2
0	3641	392.149122142543	1
0	3644	392.178019216194	2
0	3645	392.92187272048	3
0	3645	392.92187272048	2
0	3646	393.247588389829	1
0	3649	393.323472077141	2
0	3650	393.424313008522	3
0	3650	393.424313008522	2
0	3651	393.47896307664	1
0	3653	393.485936661064	2
0	3653	393.485936661064	1
0	3654	393.557660762717	2
0	3654	393.557660762717	1
0	3656	393.767029428624	2
0	3658	393.837567029589	3
0	3660	394.511771988645	4
0	3661	394.861693899922	5
0	3661	394.861693899922	4
0	3662	394.892571708125	3
0	3664	394.985950849824	4
0	3664	394.985950849824	3
0	3665	395.070103295304	2
0	3667	395.113946564135	3
0	3667	395.113946564135	2
0	3668	395.264657772139	1
0	3670	395.285454484507	0
0	3673	395.371999188034	1
0	3674	395.480326143023	0
0	3677	395.529081137695	1
0	3678	395.600860798384	2
0	3678	395.600860798384	1
0	3679	395.610359634893	2
0	3679	395.610359634893	1
0	3680	396.104341907736	2
0	3680	396.104341907736	1
0	3682	396.154469697144	2
0	3684	396.168641811526	3
0	3686	396.392281503887	4
0	3687	396.450336163872	3
0	3690	396.491449884975	4
0	3691	396.523181703299	3
0	3693	396.632467200032	2
0	3695	396.67681915545	1
0	3697	396.8530174509	0
0	3703	398.839467511108	1
0	3703	398.839467511108	0
0	3705	398.884031808447	1
0	3706	399.049954905066	0
0	3708	399.280673299771	1
0	3708	399.280673299771	0
0	3709	399.545346722296	1
0	3709	399.545346722296	0
0	3711	399.633027150344	1
0	3712	399.653374658874	0
0	3714	399.753260294747	1
0	3714	399.753260294747	0
0	3720	400.179170136844	1
0	3721	400.362167664482	2
0	3721	400.362167664482	1
0	3722	400.67458762947	2
0	3722	400.67458762947	1
0	3723	400.685590750906	2
0	3723	400.685590750906	1
0	3724	400.686579013843	2
0	3724	400.686579013843	1
0	3725	400.726665299732	0
0	3731	401.545143189393	1
0	3731	401.545143189393	0
0	3736	402.297459742355	1
0	3736	402.297459742355	0
0	3738	402.559081887012	1
0	3739	402.577344299779	2
0	3739	402.577344299779	1
0	3741	402.687050120049	2
0	3742	403.019002180182	3
0	3742	403.019002180182	2
0	3743	403.380644762096	1
0	3745	403.59809407591	0
0	3747	403.754278872248	1
0	3747	403.754278872248	0
0	3761	406.16768894057	1
0	3763	406.190038941872	2
0	3764	406.194890061956	1
0	3766	406.318905665001	2
0	3766	406.318905665001	1
0	3767	406.474650606191	2
0	3767	406.474650606191	1
0	3769	406.64319145321	2
0	3770	406.678073414144	1
0	3773	406.696856158559	2
0	3774	407.292006128905	1
0	3777	407.506135512825	2
0	3779	407.523943576189	3
0	3780	407.895610933877	2
0	3783	407.911061896059	3
0	3784	408.042398513615	2
0	3786	408.166286397166	3
0	3786	408.166286397166	2
0	3788	408.211625845367	3
0	3789	408.488003981988	4
0	3789	408.488003981988	3
0	3790	409.180755204737	2
0	3792	409.501598680574	3
0	3792	409.501598680574	2
0	3793	409.62174484336	3
0	3793	409.62174484336	2
0	3794	409.637985295441	3
0	3794	409.637985295441	2
0	3796	409.827636673151	3
0	3797	409.976126786806	2
0	3799	409.989910290158	1
0	3801	410.094014397474	0
0	3803	410.147844141422	1
0	3803	410.147844141422	0
0	3805	410.399825701558	1
0	3806	410.955909310366	2
0	3806	410.955909310366	1
0	3807	411.106198143762	2
0	3807	411.106198143762	1
0	3809	411.108142370816	2
0	3810	411.110579574118	1
0	3812	411.237676502205	2
0	3812	411.237676502205	1
0	3814	411.577886600892	2
0	3816	411.716431260567	3
0	3817	411.818452894073	2
0	3819	412.198137296059	1
0	3822	412.436574753995	2
0	3823	412.606461928924	3
0	3823	412.606461928924	2
0	3824	412.699280483134	3
0	3824	412.699280483134	2
0	3825	412.821123508174	3
0	3825	412.821123508174	2
0	3827	412.849418414784	3
0	3829	412.899396781998	4
0	3830	413.046374811196	3
0	3832	413.154265772037	4
0	3832	413.154265772037	3
0	3834	413.231134679367	4
0	3835	413.457809445935	5
0	3835	413.457809445935	4
0	3836	413.695525468222	5
0	3836	413.695525468222	4
0	3837	413.722577667411	3
0	3839	413.742067426494	2
0	3842	413.753903045943	3
0	3843	414.135327961228	4
0	3843	414.135327961228	3
0	3845	414.235166077914	4
0	3846	414.516356330766	3
0	3848	414.700517802698	2
0	3850	414.766622837438	1
0	3853	414.972351620482	2
0	3854	415.103654718452	3
0	3854	415.103654718452	2
0	3855	415.624464405335	1
0	3857	415.934181518293	0
0	3863	417.336295860162	1
0	3863	417.336295860162	0
0	3864	417.386370593634	1
0	3864	417.386370593634	0
0	3870	417.66048845592	1
0	3871	417.7479933156	2
0	3871	417.7479933156	1
0	3872	417.775761054473	2
0	3872	417.775761054473	1
0	3873	418.158802922115	2
0	3873	418.158802922115	1
0	3874	418.167239662932	2
0	3874	418.167239662932	1
0	3875	418.173904676263	0
0	3881	418.624846510876	1
0	3881	418.624846510876	0
0	3891	419.187860169786	1
0	3892	419.313423748354	2
0	3892	419.313423748354	1
0	3893	419.533734506294	0
0	3899	421.412307821804	1
0	3899	421.412307821804	0
0	3900	421.437072300872	1
0	3900	421.437072300872	0
0	3909	423.123550579373	1
0	3909	423.123550579373	0
0	3911	423.155213177832	1
0	3912	423.290421357728	2
0	3912	423.290421357728	1
0	3914	423.496578701229	2
0	3915	423.551160808847	3
0	3915	423.551160808847	2
0	3916	423.600541351775	1
0	3918	423.89436484785	2
0	3918	423.89436484785	1
0	3919	424.05442194138	0
0	3921	424.433432866195	1
0	3921	424.433432866195	0
0	3923	424.651258883824	1
0	3924	424.686498046884	0
0	3926	424.688541438473	1
0	3926	424.688541438473	0
0	3927	424.833441388547	1
0	3927	424.833441388547	0
0	3929	424.836932412801	1
0	3931	424.968430363725	2
0	3933	425.152424062314	3
0	3934	425.189091516427	2
0	3936	425.539749253541	1
0	3938	425.609428509546	0
0	3945	426.865427733808	1
0	3946	426.979534672986	2
0	3946	426.979534672986	1
0	3947	427.025202145028	2
0	3947	427.025202145028	1
0	3949	427.131351496404	2
0	3950	427.396344464228	3
0	3950	427.396344464228	2
0	3952	427.501584999807	3
0	3954	427.617205253738	4
0	3955	427.828252874195	3
0	3957	427.866922018849	4
0	3957	427.866922018849	3
0	3958	428.197025403684	2
0	3960	428.365837574189	3
0	3960	428.365837574189	2
0	3962	428.415778042971	3
0	3964	428.477179084318	4
0	3966	428.599668552849	5
0	3967	428.889353098288	6
0	3967	428.889353098288	5
0	3968	428.93298448796	4
0	3970	429.453309633107	3
0	3972	429.520776427487	4
0	3972	429.520776427487	3
0	3973	429.575828033479	4
0	3973	429.575828033479	3
0	3974	429.612310325741	4
0	3974	429.612310325741	3
0	3975	429.621660961528	2
0	3977	429.659577737998	3
0	3977	429.659577737998	2
0	3979	429.741819284218	3
0	3981	429.834367619564	4
0	3983	430.028448672395	5
0	3984	430.037487197845	4
0	3986	430.116095399494	5
0	3986	430.116095399494	4
0	3987	430.121066289156	3
0	3989	430.232275358876	2
0	3992	430.306529226157	3
0	3993	430.330588865448	4
0	3993	430.330588865448	3
0	3995	430.355954785516	4
0	3997	430.376374675429	5
0	3998	430.479571008344	6
0	3998	430.479571008344	5
0	3999	430.820785181652	4
0	4002	430.823356938376	5
0	4003	430.853969420639	6
0	4003	430.853969420639	5
0	4004	431.037842389124	4
0	4006	431.245313096026	5
0	4006	431.245313096026	4
0	4007	431.605174330818	3
0	4009	431.606764540648	4
0	4009	431.606764540648	3
0	4010	431.661119079576	4
0	4010	431.661119079576	3
0	4011	431.669089657735	2
0	4013	431.956124833122	1
0	4015	432.018993349915	0
0	4017	432.461842906533	1
0	4017	432.461842906533	0
0	4019	432.696666355367	1
0	4021	432.745067394209	2
0	4022	432.750573698795	1
0	4024	432.752393956523	2
0	4024	432.752393956523	1
0	4025	432.912796989546	2
0	4025	432.912796989546	1
0	4026	432.95536735573	2
0	4026	432.95536735573	1
0	4027	433.070096441193	2
0	4027	433.070096441193	1
0	4028	433.133169412384	0
0	4034	433.431161432039	1
0	4034	433.431161432039	0
0	4036	433.529997768481	1
0	4037	433.674240342401	2
0	4037	433.674240342401	1
0	4038	433.677242768377	2
0	4038	433.677242768377	1
0	4039	433.710790550336	0
0	4042	433.747760196537	1
0	4043	433.916556856611	2
0	4043	433.916556856611	1
0	4045	433.971976183215	2
0	4046	434.347949665719	1
0	4048	434.470848839447	0
0	4059	436.571146440384	1
0	4061	436.6616350424	2
0	4062	436.776393861592	3
0	4062	436.776393861592	2
0	4063	436.827677330624	1
0	4065	436.845271245918	2
0	4065	436.845271245918	1
0	4066	437.039742927186	0
0	4069	437.209882187313	1
0	4070	437.768855804579	2
0	4070	437.768855804579	1
0	4072	437.812925273184	2
0	4073	437.995928472216	1
0	4075	438.163179311019	0
0	4077	438.222474764513	1
0	4077	438.222474764513	0
0	4086	439.93127814496	1
0	4086	439.93127814496	0
0	4088	440.003078764595	1
0	4090	440.101208458059	2
0	4091	440.216243820271	3
0	4091	440.216243820271	2
0	4092	440.329315195577	1
0	4095	440.357031420986	2
0	4097	440.395539183067	3
0	4098	440.439541026979	2
0	4100	440.826413707771	1
0	4102	441.121747526898	2
0	4102	441.121747526898	1
0	4103	441.322192877132	2
0	4103	441.322192877132	1
0	4105	441.325999078301	2
0	4106	441.479210942317	1
0	4108	441.570438959321	2
0	4108	441.570438959321	1
0	4109	441.585513033847	0
0	4115	443.357365790546	1
0	4115	443.357365790546	0
0	4116	443.529953982544	1
0	4116	443.529953982544	0
0	4121	444.017047360397	1
0	4121	444.017047360397	0
0	4122	444.048200447005	1
0	4122	444.048200447005	0
0	4131	445.635565424228	1
0	4131	445.635565424228	0
0	4132	445.76061767703	1
0	4132	445.76061767703	0
0	4137	446.695597700475	1
0	4137	446.695597700475	0
0	4138	446.97183701729	1
0	4138	446.97183701729	0
0	4144	447.542549520812	1
0	4146	447.705449382143	2
0	4148	447.879248102327	3
0	4149	447.898315249238	4
0	4149	447.898315249238	3
0	4150	448.087557808726	2
0	4152	448.138845219513	3
0	4152	448.138845219513	2
0	4153	448.312830961316	3
0	4153	448.312830961316	2
0	4154	448.316003640953	3
0	4154	448.316003640953	2
0	4155	448.611062817735	3
0	4155	448.611062817735	2
0	4156	448.689924781593	3
0	4156	448.689924781593	2
0	4157	448.850315733992	1
0	4159	448.989951455908	0
0	4165	449.767316373224	1
0	4165	449.767316373224	0
0	4175	451.114341316122	1
0	4176	451.147686051989	2
0	4176	451.147686051989	1
0	4178	451.248257433188	2
0	4179	451.78303778688	3
0	4179	451.78303778688	2
0	4181	452.117650656029	3
0	4182	452.137603561266	4
0	4182	452.137603561266	3
0	4183	452.271397743503	4
0	4183	452.271397743503	3
0	4184	453.006811814953	4
0	4184	453.006811814953	3
0	4185	453.009492929157	4
0	4185	453.009492929157	3
0	4186	453.134864301885	2
0	4188	453.321278166163	3
0	4188	453.321278166163	2
0	4189	453.518339591131	1
0	4192	453.818024467437	2
0	4193	454.421919448336	3
0	4193	454.421919448336	2
0	4194	454.468719785894	1
0	4196	454.55200618385	2
0	4196	454.55200618385	1
0	4198	454.670176450009	2
0	4199	454.670995081748	1
0	4202	454.814431944082	2
0	4204	454.84455322556	3
0	4205	454.977544733594	4
0	4205	454.977544733594	3
0	4207	455.015202518117	4
0	4209	455.068596754282	5
0	4210	455.393180978195	6
0	4210	455.393180978195	5
0	4212	455.398937382708	6
0	4214	455.685033220023	7
0	4215	455.779108613043	8
0	4215	455.779108613043	7
0	4217	455.839181665438	8
0	4218	455.850930357647	9
0	4218	455.850930357647	8
0	4219	456.22292989828	7
0	4221	456.363892342988	6
0	4223	456.439695489165	7
0	4223	456.439695489165	6
0	4224	456.654357607078	5
0	4226	456.837406538321	6
0	4226	456.837406538321	5
0	4227	456.850100733507	4
0	4229	456.96258798538	3
0	4231	457.046117375171	4
0	4231	457.046117375171	3
0	4233	457.109137887253	4
0	4235	457.212871978967	5
0	4236	457.52570049602	6
0	4236	457.52570049602	5
0	4238	457.811086636626	6
0	4239	457.903330410799	5
0	4241	457.941871594838	4
0	4243	457.943836722091	3
0	4245	457.988957645406	4
0	4245	457.988957645406	3
0	4246	458.022729249177	4
0	4246	458.022729249177	3
0	4247	458.259382540501	2
0	4249	458.354075976364	3
0	4249	458.354075976364	2
0	4251	458.640312416552	3
0	4252	458.656133837045	4
0	4252	458.656133837045	3
0	4253	458.842917459902	4
0	4253	458.842917459902	3
0	4255	458.977523274806	4
0	4256	459.031078446843	3
0	4259	459.097085055369	4
0	4260	459.269415400144	5
0	4260	459.269415400144	4
0	4261	459.293188297533	3
0	4263	459.343836121466	2
0	4265	459.421387269478	3
0	4265	459.421387269478	2
0	4266	459.576643253182	3
0	4266	459.576643253182	2
0	4267	459.643676187875	1
0	4270	460.204276961937	2
0	4271	460.560061980491	3
0	4271	460.560061980491	2
0	4273	460.720869990173	3
0	4274	461.092275353793	4
0	4274	461.092275353793	3
0	4275	461.194903763881	4
0	4275	461.194903763881	3
0	4276	461.336707727879	2
0	4279	461.463055209737	3
0	4280	461.527920603982	4
0	4280	461.527920603982	3
0	4281	461.55649805261	2
0	4284	461.825016109115	3
0	4285	461.837993183965	4
0	4285	461.837993183965	3
0	4286	461.855191131069	2
0	4288	461.976434577537	3
0	4288	461.976434577537	2
0	4289	462.009290924063	1
0	4291	462.056334842571	0
0	4297	462.273805114487	1
0	4297	462.273805114487	0
0	4299	462.455412259655	1
0	4300	462.674614734339	0
0	4302	462.906478944498	1
0	4302	462.906478944498	0
0	4303	463.052825646117	1
0	4303	463.052825646117	0
0	4308	464.194058114261	1
0	4308	464.194058114261	0
0	4317	466.371902196975	1
0	4317	466.371902196975	0
0	4318	466.38099445087	1
0	4318	466.38099445087	0
0	4323	466.823931277488	1
0	4323	466.823931277488	0
0	4333	469.080803962763	1
0	4335	469.141443040341	2
0	4336	469.489738097559	3
0	4336	469.489738097559	2
0	4338	469.983516914081	3
0	4339	470.043053119022	4
0	4339	470.043053119022	3
0	4341	470.046310041456	4
0	4342	470.049710272213	5
0	4342	470.049710272213	4
0	4344	470.30076337482	5
0	4345	470.446778227609	6
0	4345	470.446778227609	5
0	4347	470.44747136921	6
0	4348	470.468561176243	7
0	4348	470.468561176243	6
0	4350	470.632896342822	7
0	4351	470.807915429685	6
0	4353	470.80868892855	5
0	4356	471.100099053003	6
0	4358	471.159914147016	7
0	4359	471.440285249653	8
0	4359	471.440285249653	7
0	4360	471.451685622635	8
0	4360	471.451685622635	7
0	4362	471.56860089358	8
0	4363	471.704987594866	7
0	4365	471.987165418291	8
0	4365	471.987165418291	7
0	4366	471.992500205691	6
0	4368	472.335190085624	7
0	4368	472.335190085624	6
0	4370	472.378237039831	7
0	4371	472.588984042682	8
0	4371	472.588984042682	7
0	4372	472.659556233903	6
0	4374	472.803187354255	5
0	4376	472.866852853225	6
0	4376	472.866852853225	5
0	4377	472.989358444568	6
0	4377	472.989358444568	5
0	4378	472.997971470656	4
0	4381	473.065091605199	5
0	4382	473.157414768847	6
0	4382	473.157414768847	5
0	4383	473.230478005011	4
0	4386	473.674878037411	5
0	4387	473.743045492842	6
0	4387	473.743045492842	5
0	4388	473.757184334352	4
0	4391	474.154784160079	5
0	4392	474.194739951759	6
0	4392	474.194739951759	5
0	4393	474.525426406833	6
0	4393	474.525426406833	5
0	4394	474.53958309646	4
0	4396	474.616595802917	5
0	4396	474.616595802917	4
0	4397	474.755556788016	3
0	4400	474.758869699325	4
0	4401	475.058718981182	5
0	4401	475.058718981182	4
0	4402	475.125862464202	3
0	4405	475.502233122188	4
0	4407	475.650636941352	5
0	4408	475.677259553505	4
0	4411	476.082735169503	5
0	4412	476.207524648281	6
0	4412	476.207524648281	5
0	4414	476.216574009655	6
0	4415	476.270124457539	5
0	4417	476.441612271199	6
0	4417	476.441612271199	5
0	4418	476.718500942992	6
0	4418	476.718500942992	5
0	4419	476.759691909977	6
0	4419	476.759691909977	5
0	4420	476.767331514144	4
0	4422	476.769189718074	3
0	4424	477.065981789731	4
0	4424	477.065981789731	3
0	4426	477.422827299719	4
0	4427	477.591514907962	3
[...]
4	32695	3288.954692988281	6537
4	32697	3289.199624153311	6538
4	32703	3289.776587387485	6539
4	32705	3290.026582084414	6540
4	32723	3292.08841413807	6541
4	32725	3292.289092522416	6542
4	32731	3292.480184320627	6543
4	32735	3292.815880857168	6544
4	32746	3293.570352764406	6545
4	32753	3293.898929881715	6546
4	32758	3294.571134985911	6547
4	32765	3295.039160292777	6548
4	32773	3295.727728028947	6549
4	32776	3296.228745944321	6550
4	32782	3297.278536209812	6551
4	32787	3297.783153274214	6552
4	32789	3298.149955466741	6553
4	32791	3298.174833875268	6554
4	32800	3299.351556127374	6555
4	32816	3301.280167418729	6556
4	32827	3302.626573558106	6557
4	32829	3302.695943327521	6558
4	32831	3302.769586004209	6559
4	32833	3303.075297904964	6560
4	32835	3303.140085207697	6561
4	32839	3303.696074028025	6562
4	32844	3304.215086919083	6563
4	32852	3305.980341621234	6564
4	32862	3306.716603343778	6565
4	32869	3307.41505959272	6566
4	32871	3307.415186268111	6567
4	32873	3307.501757097487	6568
4	32876	3307.792368983426	6569
4	32878	3307.880815250852	6570
4	32883	3308.416129131628	6571
4	32892	3308.861007404437	6572
4	32896	3309.016825420739	6573
4	32905	3309.684554936708	6574
4	32916	3310.517745207479	6575
4	32918	3310.662636451031	6576
4	32927	3310.96184933105	6577
4	32929	3310.980191014226	6578
4	32931	3311.017812627997	6579
4	32936	3311.524632282259	6580
4	32938	3311.594618976949	6581
4	32950	3312.834296709231	6582
4	32957	3313.657249229787	6583
4	32959	3313.861827851816	6584
4	32968	3314.920534730118	6585
4	32972	3315.13891268961	6586
4	32975	3315.341730484576	6587
4	32980	3316.085669931558	6588
4	32987	3316.25729382448	6589
4	32989	3316.40090322598	6590
4	32991	3316.590548598104	6591
4	32993	3316.818856724168	6592
4	32995	3317.094045167374	6593
4	32999	3317.573069351796	6594
4	33002	3318.041619012687	6595
4	33007	3318.335709942965	6596
4	33022	3319.650607425014	6597
4	33026	3319.881381119921	6598
4	33028	3320.125420411787	6599
4	33030	3320.14399364068	6600
4	33032	3320.261910414679	6601
4	33034	3320.318987328653	6602
4	33037	3320.521913746102	6603
4	33039	3320.549218366029	6604
4	33048	3321.414167139537	6605
4	33050	3321.44231798099	6606
4	33052	3321.53177090164	6607
4	33056	3321.664844070591	6608
4	33059	3321.780769653749	6609
4	33062	3321.943881364427	6610
4	33067	3322.473165041822	6611
4	33071	3322.628809275437	6612
4	33075	3323.16047445681	6613
4	33077	3323.303929834028	6614
4	33085	3323.709077499362	6615
4	33088	3323.823079921675	6616
4	33101	3325.144192508687	6617
4	33104	3325.50392280916	6618
4	33114	3326.264969936116	6619
4	33116	3326.550074981607	6620
4	33119	3326.890514710996	6621
4	33123	3327.090569766725	6622
4	33125	3327.422649389976	6623
4	33128	3327.627116479288	6624
4	33136	3328.458038151014	6625
4	33145	3328.863724195454	6626
4	33158	3329.490559276304	6627
4	33160	3329.56216484879	6628
4	33165	3329.693646811031	6629
4	33180	3331.279702738422	6630
4	33182	3331.365603000756	6631
4	33184	3331.498150486217	6632
4	33186	3331.877081552084	6633
4	33188	3332.01413918344	6634
4	33190	3332.133247460516	6635
4	33194	3332.279982409503	6636
4	33196	3332.288081482053	6637
4	33201	3332.529342499115	6638
4	33203	3332.567542625447	6639
4	33205	3332.603273962059	6640
4	33209	3332.88142737542	6641
4	33212	3332.939939494168	6642
4	33224	3334.610704259449	6643
4	33228	3335.066640765313	6644
4	33230	3335.125673748337	6645
4	33236	3335.754602928438	6646
4	33238	3335.973572141374	6647
4	33243	3336.387368811662	6648
4	33249	3336.813184515963	6649
4	33256	3337.452556266874	6650
4	33258	3337.643646030346	6651
4	33266	3338.850087554453	6652
4	33275	3339.417962920527	6653
4	33277	3339.485942046751	6654
4	33279	3339.518930467282	6655
4	33283	3340.915568204496	6656
4	33287	3341.547836521419	6657
4	33291	3342.047734100459	6658
4	33297	3342.553519544983	6659
4	33303	3343.296370239468	6660
4	33309	3344.175894883984	6661
4	33330	3346.017047586608	6662
4	33332	3346.074896540543	6663
4	33335	3346.152939058562	6664
4	33341	3346.668312361841	6665
4	33343	3346.764782594992	6666
4	33348	3347.057121546016	6667
4	33354	3347.33492554185	6668
4	33359	3347.761279910052	6669
4	33363	3347.90071888792	6670
4	33367	3348.03732459896	6671
4	33372	3348.918461505837	6672
4	33377	3349.023319841674	6673
4	33379	3349.076513038281	6674
4	33383	3349.533045339128	6675
4	33388	3349.63922594759	6676
4	33392	3349.746523821692	6677
4	33394	3349.825232195795	6678
4	33399	3350.171161114485	6679
4	33407	3351.25433710337	6680
4	33409	3351.306243926855	6681
4	33411	3351.366368086971	6682
4	33416	3352.156946662599	6683
4	33424	3352.536668866954	6684
4	33427	3352.830625427667	6685
4	33431	3353.16767542399	6686
4	33438	3353.403333263854	6687
4	33454	3354.819466550219	6688
4	33456	3354.827829202972	6689
4	33464	3355.238879564859	6690
4	33468	3355.294636372803	6691
4	33470	3355.377645415217	6692
4	33474	3355.492870217688	6693
4	33476	3355.523062654601	6694
4	33480	3355.65201212765	6695
4	33484	3355.810875709082	6696
4	33495	3357.42112545393	6697
4	33497	3357.424571815517	6698
4	33499	3357.472260294173	6699
4	33510	3358.243421077798	6700
4	33516	3358.706576123293	6701
4	33522	3359.005461047436	6702
4	33524	3359.241325273491	6703
4	33538	3360.397460266791	6704
4	33540	3360.52641841793	6705
4	33542	3360.580571006472	6706
4	33544	3360.666067772125	6707
4	33547	3360.688317885685	6708
4	33552	3360.851824718519	6709
4	33555	3361.03165788453	6710
4	33557	3361.090266706708	6711
4	33561	3361.329567007588	6712
4	33566	3362.281549191109	6713
4	33574	3363.0236959402	6714
4	33579	3363.226454963411	6715
4	33585	3363.386651711798	6716
4	33588	3363.648011750282	6717
4	33591	3363.820154995043	6718
4	33596	3365.014618659633	6719
4	33600	3365.456097038538	6720
4	33612	3368.142293840608	6721
4	33614	3368.153850196136	6722
4	33619	3368.786536687379	6723
4	33621	3368.977312741676	6724
4	33627	3369.577809031234	6725
4	33634	3370.477272120147	6726
4	33637	3370.903052996263	6727
4	33640	3371.326353514154	6728
4	33645	3371.815613391981	6729
4	33654	3372.239108310662	6730
4	33659	3373.011562386192	6731
4	33662	3373.288210373436	6732
4	33665	3373.450161822249	6733
4	33674	3373.925489866487	6734
4	33678	3374.079061902402	6735
4	33680	3374.153913598862	6736
4	33690	3374.582366895876	6737
4	33694	3374.673392967377	6738
4	33696	3374.757223701213	6739
4	33699	3374.819653635608	6740
4	33710	3376.594597324567	6741
4	33714	3377.05097851608	6742
4	33720	3377.139531402035	6743
4	33733	3378.21516871663	6744
4	33749	3379.115346634365	6745
4	33752	3379.26677612611	6746
4	33757	3379.707663998945	6747
4	33761	3379.891859276261	6748
4	33767	3380.456099634802	6749
4	33769	3380.786651727153	6750
4	33771	3380.789141078537	6751
4	33773	3380.815792927015	6752
4	33775	3380.943744288041	6753
4	33777	3381.007536894333	6754
4	33779	3381.184208034734	6755
4	33785	3381.936429321565	6756
4	33792	3382.197701456563	6757
4	33794	3382.255039771581	6758
4	33796	3382.394108693038	6759
4	33803	3383.087792445724	6760
4	33808	3383.942190721879	6761
4	33812	3384.701309390503	6762
4	33819	3385.448172412965	6763
4	33821	3385.531395064017	6764
4	33827	3385.859276965183	6765
4	33839	3386.641946783889	6766
4	33845	3386.932709693328	6767
4	33848	3387.184032354767	6768
4	33850	3387.456949371772	6769
4	33852	3387.511045489746	6770
4	33855	3388.018538506659	6771
4	33857	3388.161824741651	6772
4	33859	3388.334067991052	6773
4	33863	3388.705689670839	6774
4	33871	3389.872526323557	6775
4	33875	3390.090670389958	6776
4	33877	3390.219373759711	6777
4	33884	3391.229058748856	6778
4	33892	3391.617282190669	6779
4	33898	3391.994304110109	6780
4	33900	3392.091314691721	6781
4	33918	3393.51480346111	6782
4	33920	3393.623701865417	6783
4	33924	3393.939087172053	6784
4	33934	3394.567862451773	6785
4	33943	3394.984827947631	6786
4	33945	3395.215128664989	6787
4	33952	3395.768645194025	6788
4	33955	3396.102036845212	6789
4	33957	3396.232470168916	6790
4	33964	3396.580940051717	6791
4	33967	3396.865364440983	6792
4	33969	3396.944384235299	6793
4	33971	3396.987644045013	6794
4	33977	3397.281244474046	6795
4	33984	3398.186031808123	6796
4	33987	3398.352918611279	6797
4	33993	3399.539474821232	6798
4	33995	3399.577756975703	6799
4	34006	3400.688028001587	6800
4	34008	3400.763840553388	6801
4	34014	3401.323807695063	6802
4	34016	3401.325196555019	6803
4	34026	3402.528503198851	6804
4	34031	3402.984779778892	6805
4	34035	3403.493216539994	6806
4	34041	3403.699404968625	6807
4	34043	3403.753097423839	6808
4	34045	3403.887188302575	6809
4	34047	3404.199887846173	6810
4	34049	3404.620415945442	6811
4	34057	3405.287139698751	6812
4	34059	3405.369542055038	6813
4	34065	3405.803315976614	6814
4	34071	3406.343017298847	6815
4	34074	3406.795537437384	6816
4	34076	3406.821774146215	6817
4	34080	3407.459703110003	6818
4	34084	3408.012363086101	6819
4	34089	3408.594144907806	6820
4	34095	3410.317611154554	6821
4	34107	3411.815300970818	6822
4	34109	3412.001796015918	6823
4	34111	3412.072686353923	6824
4	34116	3412.834181604425	6825
4	34120	3413.116679247723	6826
4	34130	3413.896568221474	6827
4	34134	3414.116570122938	6828
4	34136	3414.154201922978	6829
4	34140	3414.383531359613	6830
4	34149	3414.988642441025	6831
4	34151	3415.039932420235	6832
4	34157	3415.892557724762	6833
4	34159	3415.902008650311	6834
4	34166	3416.365004233817	6835
4	34169	3416.659841521693	6836
4	34186	3418.606050315838	6837
4	34188	3418.70944940454	6838
4	34191	3419.204820924427	6839
4	34193	3419.35915846911	6840
4	34195	3419.37699192381	6841
4	34205	3420.460076434356	6842
4	34207	3420.521091540556	6843
4	34219	3421.59409321986	6844
4	34221	3421.636150326118	6845
4	34229	3421.886708365451	6846
4	34231	3422.134135039122	6847
4	34242	3423.296082358168	6848
4	34245	3423.4376198406	6849
4	34254	3424.575898394242	6850
4	34256	3424.650483705659	6851
4	34258	3424.928105055226	6852
4	34260	3425.063737478521	6853
4	34264	3425.103446490428	6854
4	34272	3426.556581282268	6855
4	34277	3426.96086635384	6856
4	34279	3427.37157699432	6857
4	34286	3427.79243759943	6858
4	34288	3427.894521151655	6859
4	34297	3429.105880586453	6860
4	34299	3429.184415013553	6861
4	34305	3430.820605486365	6862
4	34310	3433.061810766582	6863
4	34318	3433.757169419084	6864
4	34325	3434.013402298328	6865
4	34327	3434.121399628846	6866
4	34329	3434.136580400304	6867
4	34333	3435.736378049621	6868
4	34345	3437.82391249011	6869
4	34353	3438.804833716354	6870
4	34358	3439.357439529655	6871
4	34364	3439.846322531374	6872
4	34366	3440.04482373704	6873
4	34368	3440.109473349596	6874
4	34370	3440.119853501458	6875
4	34376	3441.049654621092	6876
4	34380	3441.437974210489	6877
4	34387	3442.326379355387	6878
4	34391	3443.017871742157	6879
4	34395	3444.107501974244	6880
4	34404	3444.784264101348	6881
4	34407	3445.225031232865	6882
4	34409	3445.289653179836	6883
4	34413	3445.470155596337	6884
4	34418	3446.288258369298	6885
4	34422	3446.741564988176	6886
4	34428	3447.856626183783	6887
4	34437	3448.867441460939	6888
4	34442	3449.249606955368	6889
4	34452	3450.156771704396	6890
4	34454	3450.182644984459	6891
4	34458	3450.541312218905	6892
4	34460	3450.697521509726	6893
4	34465	3451.145683478453	6894
4	34468	3451.647515920116	6895
4	34472	3451.886542551549	6896
4	34486	3453.134299279914	6897
4	34490	3453.444096633887	6898
4	34492	3453.641726983209	6899
4	34494	3453.698743658004	6900
4	34496	3453.710745323353	6901
4	34498	3453.782617573056	6902
4	34503	3454.084381917659	6903
4	34506	3454.248639206659	6904
4	34512	3454.926970864629	6905
4	34515	3455.377586096525	6906
4	34520	3456.829355321006	6907
4	34529	3457.609167608172	6908
4	34546	3458.887383473734	6909
4	34549	3459.32525036988	6910
4	34551	3459.330963973823	6911
4	34562	3459.834511664862	6912
4	34569	3460.540947265203	6913
4	34576	3460.972286515665	6914
4	34578	3461.115722711589	6915
4	34580	3461.141825457291	6916
4	34582	3461.190505155668	6917
4	34589	3461.850982798609	6918
4	34591	3462.026914729641	6919
4	34593	3462.844232938343	6920
4	34595	3462.845391056468	6921
4	34599	3463.639107816746	6922
4	34605	3464.050022446285	6923
4	34607	3464.169955334734	6924
4	34609	3464.952534145522	6925
4	34613	3465.921773443982	6926
4	34617	3467.250270832053	6927
4	34623	3467.834195385164	6928
4	34628	3468.285367139546	6929
4	34634	3469.099976569034	6930
4	34638	3469.514899939189	6931
4	34649	3471.203699176838	6932
4	34651	3471.46129064807	6933
4	34653	3472.027478852411	6934
4	34659	3473.793623312644	6935
4	34665	3474.294155695471	6936
4	34668	3474.449372189565	6937
4	34680	3476.265841208327	6938
4	34682	3476.3454603029	6939
4	34684	3476.475565738881	6940
4	34688	3476.532527178799	6941
4	34692	3476.596443996765	6942
4	34696	3476.677821856981	6943
4	34698	3476.73448323553	6944
4	34707	3477.104512447242	6945
4	34709	3477.231304129957	6946
4	34712	3477.490611584613	6947
4	34718	3478.253373547798	6948
4	34724	3479.083899764899	6949
4	34726	3479.117359350358	6950
4	34730	3480.258377368789	6951
4	34736	3482.338263533902	6952
4	34744	3482.874348197373	6953
4	34755	3483.428547994726	6954
4	34762	3484.121938819349	6955
4	34764	3484.169189904916	6956
4	34766	3484.285243816395	6957
4	34768	3484.439530387471	6958
4	34778	3484.820008831455	6959
4	34781	3485.443090376992	6960
4	34785	3485.628539252996	6961
4	34796	3486.202935773661	6962
4	34806	3487.136339714644	6963
4	34814	3487.541318072339	6964
4	34820	3488.030384630997	6965
4	34822	3488.114730731662	6966
4	34830	3488.652297743751	6967
4	34832	3488.68606221742	6968
4	34836	3488.752824081959	6969
4	34838	3488.768896072694	6970
4	34849	3489.181758592259	6971
4	34851	3489.466437932774	6972
4	34859	3490.021941161278	6973
4	34869	3490.855946947017	6974
4	34872	3491.844834484666	6975
4	34874	3492.169217554789	6976
4	34890	3494.00191003206	6977
4	34892	3494.031298473839	6978
4	34898	3494.737076752384	6979
4	34904	3494.897662574559	6980
4	34906	3495.01525313635	6981
4	34908	3495.215910877058	6982
4	34910	3495.4681860013	6983
4	34912	3495.920101246695	6984
4	34914	3496.003906022856	6985
4	34917	3496.105146974027	6986
4	34919	3496.149588526271	6987
4	34921	3496.247925215434	6988
4	34925	3496.730857099203	6989
4	34930	3497.398934874077	6990
4	34934	3498.17164907004	6991
4	34943	3499.619863275191	6992
4	34945	3499.808624571536	6993
4	34949	3500.57871278801	6994
4	34954	3501.732595975532	6995
4	34960	3501.898576199116	6996
4	34964	3501.985240753344	6997
4	34968	3502.181324032742	6998
4	34973	3503.038281327683	6999
4	34988	3504.22700430734	7000
4	34990	3504.384485966193	7001
4	35000	3505.367995112042	7002
4	35003	3505.852974977841	7003
4	35014	3506.629440535264	7004
4	35019	3506.8640483069	7005
4	35021	3506.871196876113	7006
4	35045	3509.340676801329	7007
4	35047	3509.563451688686	7008
4	35050	3509.860492319674	7009
4	35059	3511.628951485986	7010
4	35063	3511.773944585606	7011
4	35070	3512.208202320019	7012
4	35072	3512.254083246013	7013
4	35075	3512.550935530225	7014
4	35077	3512.572576477612	7015
4	35079	3512.828565920775	7016
4	35082	3513.107433402302	7017
4	35085	3514.339111328642	7018
4	35088	3514.561976559454	7019
4	35092	3515.145394411563	7020
4	35094	3515.311460223593	7021
4	35105	3515.72023437271	7022
4	35107	3515.852268534773	7023
4	35109	3515.937745922254	7024
4	35111	3516.055609447843	7025
4	35116	3516.303816012861	7026
4	35120	3516.849604657847	7027
4	35125	3517.380860537477	7028
4	35129	3518.040525431551	7029
4	35131	3518.456249135282	7030
4	35135	3518.922456847997	7031
4	35137	3518.926392861713	7032
4	35139	3519.01745240248	7033
4	35143	3519.433602131262	7034
4	35148	3519.888507894357	7035
4	35153	3521.052525651958	7036
4	35157	3521.523570741717	7037
4	35170	3522.830987522905	7038
4	35173	3523.069812769871	7039
4	35175	3523.141751329267	7040
4	35178	3523.441488936574	7041
4	35181	3524.110471074103	7042
4	35187	3524.966293268876	7043
4	35192	3525.925289539586	7044
4	35198	3526.523891271304	7045
4	35201	3526.73346775503	7046
4	35206	3526.831103956756	7047
4	35210	3527.522259150861	7048
4	35215	3528.676885371748	7049
4	35219	3528.829730786912	7050
4	35224	3529.822941204719	7051
4	35243	3532.230181333437	7052
4	35250	3532.627656828604	7053
4	35252	3532.638403015137	7054
4	35254	3533.165191957352	7055
4	35260	3533.77123444082	7056
4	35262	3533.811917349596	7057
4	35266	3534.402159458326	7058
4	35269	3534.718957858979	7059
4	35274	3535.100065247289	7060
4	35278	3535.245153995355	7061
4	35281	3535.643147581769	7062
4	35283	3535.739083817362	7063
4	35289	3536.363916072561	7064
4	35294	3536.639065588231	7065
4	35302	3537.042508910478	7066
4	35304	3537.072743719637	7067
4	35310	3538.0113958587	7068
4	35318	3538.870601298931	7069
4	35325	3539.431575884677	7070
4	35328	3539.521153465224	7071
4	35332	3539.613486119037	7072
4	35336	3540.800842221061	7073
4	35345	3541.50078196583	7074
4	35353	3542.403087639614	7075
4	35359	3542.885048274263	7076
4	35366	3543.447192500542	7077
4	35368	3543.759320589168	7078
4	35370	3543.839557629785	7079
4	35382	3545.230496849142	7080
4	35390	3546.267446235131	7081
4	35392	3546.403533438598	7082
4	35394	3546.457486289872	7083
4	35398	3546.513006659466	7084
4	35400	3546.537940053977	7085
4	35406	3547.228511630651	7086
4	35408	3547.655509052616	7087
4	35411	3547.886072603694	7088
4	35423	3548.798923988314	7089
4	35426	3549.062244986958	7090
4	35428	3549.077972833742	7091
4	35440	3550.191730510059	7092
4	35446	3550.270673550185	7093
4	35448	3550.526373064262	7094
4	35451	3550.643051619364	7095
4	35453	3550.6646502249	7096
4	35455	3550.726615166401	7097
4	35458	3550.937858653517	7098
4	35461	3551.092354940751	7099
4	35469	3553.250347046778	7100
4	35472	3553.33774896245	7101
4	35478	3554.83652238883	7102
4	35484	3555.490200258582	7103
4	35490	3556.43043957538	7104
4	35497	3556.674568126614	7105
4	35499	3556.678786746412	7106
4	35505	3557.199793907225	7107
4	35511	3557.690763726298	7108
4	35517	3559.506827227154	7109
4	35525	3560.592613451823	7110
4	35527	3561.123904191479	7111
4	35531	3562.468105516414	7112
4	35535	3565.637603991382	7113
4	35539	3565.758947734277	7114
4	35544	3567.07143901764	7115
4	35549	3567.642256065029	7116
4	35556	3568.74317703537	7117
4	35560	3569.003664584545	7118
4	35568	3569.646393793302	7119
4	35572	3569.779127239088	7120
4	35576	3569.913443913794	7121
4	35580	3570.359898908538	7122
4	35588	3571.276311148158	7123
4	35590	3571.387776232645	7124
4	35595	3572.184442833635	7125
4	35600	3572.969385780671	7126
4	35604	3573.447552672137	7127
4	35611	3574.220005538345	7128
4	35615	3574.477710278922	7129
4	35619	3574.791257691916	7130
4	35629	3575.154698777856	7131
4	35631	3575.297041642771	7132
4	35633	3575.384003525055	7133
4	35639	3575.545488538663	7134
4	35644	3576.126862861264	7135
4	35649	3576.563780485807	7136
4	35651	3576.659057273999	7137
4	35657	3577.010414748956	7138
4	35663	3578.050840574398	7139
4	35671	3579.177397762877	7140
4	35673	3579.257765555914	7141
4	35675	3579.279861267975	7142
4	35685	3579.974228236377	7143
4	35687	3580.097486598195	7144
4	35689	3580.107181084364	7145
4	35694	3582.540042887494	7146
4	35699	3583.113061740812	7147
4	35703	3583.462083554315	7148
4	35707	3583.920043346431	7149
4	35711	3584.333959078368	7150
4	35719	3585.303245808216	7151
4	35721	3585.343521345655	7152
4	35727	3586.127040900106	7153
4	35730	3586.193989977429	7154
4	35738	3587.397864674702	7155
4	35742	3587.779597122034	7156
4	35745	3587.918223268535	7157
4	35756	3588.780333997916	7158
4	35758	3588.799069111481	7159
4	35761	3589.259653154448	7160
4	35763	3589.462426795035	7161
4	35769	3589.865526232677	7162
4	35781	3590.70667382893	7163
4	35783	3590.912865054649	7164
4	35789	3591.51229645851	7165
4	35791	3591.943909790887	7166
4	35800	3592.830083450124	7167
4	35809	3593.714802799312	7168
4	35814	3593.852532016587	7169
4	35818	3594.54686206136	7170
4	35820	3594.994793347876	7171
4	35824	3595.403948317866	7172
4	35830	3596.056640798018	7173
4	35836	3596.611390336787	7174
4	35838	3596.627050900108	7175
4	35844	3597.155086154416	7176
4	35846	3597.25464976962	7177
4	35855	3598.032180300484	7178
4	35861	3598.263460689583	7179
4	35863	3598.284078841153	7180
4	35867	3598.697781789938	7181
4	35874	3599.455787941163	7182
4	35878	3599.612099435378	7183

