version 2
run Net3-0-20230626-03:10:11-2870
attr configname Net3
attr datetime 20230626-03:10:11
attr experiment Net3
attr inifile omnetpp.ini
attr iterationvars ""
attr iterationvarsf ""
attr measurement ""
attr network Net
attr processid 2870
attr repetition 0
attr replication #0
attr resultdir results
attr runnumber 0
attr seedset 0
param **.source*.meanofMsgSize 2
param **.source*.avgInterArrivalTime 0.2s
param **.queue*.avgServiceTime 0.11s
param **.queue*.isRoundRobin false

vector 0 Net.queue1 qlen:vector ETV
attr interpolationmode sample-hold
attr title "queue length, vector"
vector 1 Net.queue1 queueingTime:vector ETV
attr interpolationmode none
attr title "queueing time at dequeue, vector"
attr unit s
vector 2 Net.queue1 responseTime:vector ETV
attr interpolationmode none
attr title "response time at end of service, vector"
attr unit s
vector 3 Net.sink1 lifetime:vector ETV
attr interpolationmode none
attr title "lifetime of arrived msg, vector"
attr unit s
vector 4 Net.sink1 arrivedMsg:vector ETV
attr interpolationmode none
attr title "number of arrived msg, vector"
0	0	0	0
0	8	0.364356703991	1
0	9	0.394382064644	0
0	12	0.55975798927	1
0	13	0.62277711079	0
0	16	0.674861828647	1
0	18	0.686538762466	2
0	19	0.739319626705	1
0	22	0.750209990634	2
0	23	0.898908321338	1
0	26	1.063989214159	2
0	27	1.082851553374	1
0	29	1.192603395357	0
0	32	1.231875784739	1
0	34	1.246612855832	2
0	36	1.264845061057	3
0	38	1.268930178737	4
0	40	1.626427711425	5
0	42	1.927584563152	6
0	43	2.050027243687	5
0	45	2.191203261676	4
0	47	2.367779612953	3
0	49	2.545319841191	2
0	51	2.61340208175	1
0	54	2.69662893698	2
0	55	2.775094254412	1
0	57	2.88745176059	0
0	60	2.951674477425	1
0	62	3.105841409118	2
0	63	3.175317754954	1
0	65	3.199945910293	0
0	68	3.253406867469	1
0	69	3.258858139518	0
0	72	3.551057832619	1
0	73	3.699503900444	0
0	80	3.797478935876	1
0	81	3.824876677038	0
0	88	4.084589681173	1
0	89	4.303448923652	0
0	92	4.313617472113	1
0	93	4.369200992102	0
0	96	4.503516388812	1
0	97	4.558796686327	0
0	116	5.829373373312	1
0	117	5.85654775203	0
0	120	5.907995884773	1
0	122	6.023460746934	2
0	123	6.042321866606	1
0	125	6.077841452298	0
0	132	6.69723278443	1
0	134	6.871615955155	2
0	136	6.978628890572	3
0	138	7.034684292268	4
0	140	7.069309783497	5
0	141	7.251661113872	4
0	144	7.293943443804	5
0	146	7.323685897654	6
0	148	7.367462016955	7
0	149	7.369149055558	6
0	151	7.558385537907	5
0	153	7.559888641534	4
0	156	7.584715893131	5
0	157	7.593596452437	4
0	159	7.839955612903	3
0	161	7.851069438187	2
0	164	7.948679676988	3
0	166	8.369743937146	4
0	168	8.512260655813	5
0	170	8.523726041098	6
0	171	8.637258880103	5
0	173	8.639479794199	4
0	175	8.648274579992	3
0	177	8.776507825543	2
0	180	8.792575095528	3
0	182	8.881658987912	4
0	183	8.886203205061	3
0	185	8.970397413811	2
0	188	9.115033693222	3
0	190	9.128293173518	4
0	192	9.294861876731	5
0	194	9.356544844751	6
0	195	9.437729597151	5
0	198	9.50469663484	6
0	200	10.012757536432	7
0	202	10.0301116329	8
0	204	10.095179716006	9
0	205	10.257971774953	8
0	208	10.315348898024	9
0	210	10.567335660046	10
0	212	10.635666493451	11
0	214	10.676136581164	12
0	216	10.852762389556	13
0	217	10.867589899784	12
0	220	10.888812839953	13
0	222	10.889754148051	14
0	224	11.116280976445	15
0	226	11.179225308616	16
0	228	11.444976883366	17
0	229	11.45028445368	16
0	231	11.544671374608	15
0	234	11.558557714062	16
0	235	11.69988405963	15
0	237	11.980126927446	14
0	240	12.011304429234	15
0	241	12.20423184805	14
0	244	12.455605808929	15
0	246	12.574130614419	16
0	247	12.875733812565	15
0	250	12.94882259039	16
0	252	12.973527919862	17
0	254	13.264891631575	18
0	256	13.371036130898	19
0	258	13.596092534267	20
0	260	13.653574629481	21
0	262	13.728722397962	22
0	263	14.143925985035	21
0	265	14.273658107736	20
0	267	14.371322862884	19
0	270	14.401596488572	20
0	272	14.540756380752	21
0	273	14.797652921588	20
0	275	14.884131811341	19
0	278	15.165850052284	20
0	279	15.224954824854	19
0	282	15.276129250311	20
0	283	15.331044717058	19
0	286	15.403154793437	20
0	287	15.410008704549	19
0	289	15.447694663266	18
0	292	15.471087739953	19
0	294	15.583079953968	20
0	295	15.607294439841	19
0	298	15.612194749658	20
0	299	15.643114982344	19
0	301	15.739261145374	18
0	304	15.780972444176	19
0	305	15.837571343988	18
0	307	15.841333720007	17
0	310	15.951788391305	18
0	311	16.074315784791	17
0	313	16.116900094927	16
0	316	16.162958313037	17
0	317	16.241114405174	16
0	319	16.257866703952	15
0	321	16.358664738423	14
0	323	16.381175273691	13
0	325	16.444146044348	12
0	328	16.616685111575	13
0	330	16.67699829422	14
0	332	16.831013666129	15
0	334	16.851990033249	16
0	335	16.899305118004	15
0	338	16.938859164438	16
0	339	17.174878773485	15
0	341	17.579619986202	14
0	343	17.615231405279	13
0	345	17.873750907152	12
0	348	18.291937268425	13
0	349	18.319450846915	12
0	352	18.327402383454	13
0	354	18.353839125377	14
0	355	18.475632790904	13
0	358	18.730624902694	14
0	360	18.836625478321	15
0	362	18.86678368036	16
0	363	18.91606981992	15
0	365	19.047568062211	14
0	367	19.201768009126	13
0	369	19.334713804932	12
0	371	19.394648089028	11
0	374	19.676753048121	12
0	375	19.817158376286	11
0	377	19.967279285067	10
0	380	20.079307595362	11
0	382	20.46662304286	12
0	384	20.756181859258	13
0	385	20.783470615286	12
0	387	20.935962664008	11
0	389	20.956675111282	10
0	392	21.018041532063	11
0	393	21.093497250359	10
0	395	21.099642956177	9
0	398	21.15253363543	10
0	399	21.190718319165	9
0	402	21.192099536922	10
0	403	21.194831322658	9
0	405	21.263317030496	8
0	407	21.319088285628	7
0	410	21.507782081343	8
0	411	21.775815118925	7
0	414	22.084690939024	8
0	416	22.328450299693	9
0	418	22.334921660622	10
0	420	22.370913128932	11
0	422	22.381249710091	12
0	424	22.621443891399	13
0	425	22.644447343566	12
0	427	23.243143959867	11
0	429	23.31155687696	10
0	431	23.520959412619	9
0	434	23.597270468998	10
0	436	23.77554618438	11
0	437	23.896036256054	10
0	440	24.037503258652	11
0	442	24.199099269332	12
0	444	24.246849843902	13
0	445	24.263209032778	12
0	447	24.285872558111	11
0	450	24.297169566525	12
0	451	24.340181597247	11
0	454	24.465765321608	12
0	456	24.600614235535	13
0	458	24.65931576592	14
0	460	24.773295278981	15
0	461	24.784146250214	14
0	464	24.84802923786	15
0	465	25.252453671011	14
0	467	25.356825254884	13
0	469	25.462583607757	12
0	471	25.484360058644	11
0	473	25.57037738794	10
0	475	25.578623544533	9
0	478	25.597368160625	10
0	480	25.869754505486	11
0	482	26.00000065187	12
0	483	26.002862774647	11
0	486	26.226071761052	12
0	487	26.256672309009	11
0	489	26.532597028429	10
0	492	26.680039764209	11
0	494	26.728937968618	12
0	496	26.946518855341	13
0	498	27.007639835704	14
0	500	27.011813279426	15
0	502	27.295889970543	16
0	504	27.503459985641	17
0	505	27.553320584231	16
0	507	27.633991028279	15
0	509	27.852121972716	14
0	511	27.852134150133	13
0	514	27.859088653008	14
0	516	27.923003583983	15
0	518	28.356156320158	16
0	519	28.532205159624	15
0	522	28.583967850293	16
0	524	28.716068466243	17
0	526	29.027001053805	18
0	528	29.07912907968	19
0	529	29.203905786935	18
0	531	29.300579768236	17
0	533	29.383394225571	16
0	535	29.436177399847	15
0	538	29.503678410468	16
0	540	29.631316131587	17
0	542	29.677821135264	18
0	543	29.783457909403	17
0	545	29.83501232176	16
0	548	29.940015608896	17
0	550	29.98839953785	18
0	551	30.177950181832	17
0	554	30.318014772482	18
0	556	30.542706872392	19
0	558	30.607546695089	20
0	560	30.645998983257	21
0	561	30.835983118253	20
0	564	30.889798852293	21
0	565	30.891453910911	20
0	567	30.913724374918	19
0	569	30.938941250691	18
0	571	30.956153585433	17
0	573	30.99581393134	16
0	575	31.069463396335	15
0	577	31.098798333455	14
0	579	31.195478519363	13
0	582	31.256851532881	14
0	584	31.263036791193	15
0	585	31.336325198301	14
0	587	31.488231138824	13
0	589	31.509608028065	12
0	592	31.537905394077	13
0	594	31.555327110729	14
0	596	31.716005463262	15
0	598	31.725343011991	16
0	600	31.772274181842	17
0	602	31.839905124811	18
0	604	32.066088820649	19
0	606	32.079111393606	20
0	608	32.241339598052	21
0	610	32.243196202928	22
0	611	32.281970375082	21
0	613	32.451131533674	20
0	616	32.601194123824	21
0	618	32.844332218496	22
0	620	32.884420657513	23
0	622	33.017382207423	24
0	624	33.327184543254	25
0	626	33.409730516599	26
0	627	33.82260199521	25
0	629	33.889402716958	24
0	631	33.91839619937	23
0	634	34.061514712036	24
0	636	34.197075112447	25
0	637	34.382791729734	24
0	640	34.448522511561	25
0	641	34.559392193671	24
0	644	34.647615240234	25
0	646	34.785502147804	26
0	647	34.966242746471	25
0	650	35.1577884764	26
0	651	35.174153933262	25
0	654	35.350190861718	26
0	656	35.435498024125	27
0	657	35.500687279445	26
0	660	35.73871181009	27
0	662	35.868871278562	28
0	664	35.869682542826	29
0	666	35.932482122439	30
0	668	36.038175568099	31
0	670	36.149977102097	32
0	672	36.22069641715	33
0	674	36.323239345676	34
0	676	36.374041621346	35
0	677	36.382436203517	34
0	680	36.39463529409	35
0	681	36.439754873836	34
0	684	36.563062554657	35
0	686	36.874121426728	36
0	688	36.980113742582	37
0	690	37.051972523607	38
0	692	37.350498956445	39
0	693	37.630705405481	38
0	696	37.961470912246	39
0	698	37.963769562288	40
0	699	38.057444198884	39
0	701	38.097400842963	38
0	703	38.114883492725	37
0	706	38.258210393887	38
0	708	38.315912935957	39
0	709	38.350765893821	38
0	712	38.542188689478	39
0	714	38.598493493972	40
0	716	38.707625036925	41
0	717	38.71867874305	40
0	720	38.870628703104	41
0	722	38.965924419624	42
0	724	38.986231236412	43
0	726	39.045411611062	44
0	728	39.224677452066	45
0	729	39.302653284709	44
0	731	39.34213902973	43
0	734	39.354112392875	44
0	736	39.476800210793	45
0	737	39.489385661567	44
0	740	39.625516849148	45
0	742	39.863416099415	46
0	743	39.868800319524	45
0	746	39.93009676709	46
0	747	39.931299072736	45
0	750	40.072498380215	46
0	751	40.10221107796	45
0	754	40.288283761915	46
0	755	40.496235490256	45
0	758	40.588766320657	46
0	760	40.682387611304	47
0	762	40.74610438088	48
0	763	40.747847426785	47
0	765	40.795120923841	46
0	767	40.819262421539	45
0	770	40.838782386388	46
0	771	41.317714749943	45
0	773	41.327755120832	44
0	776	41.357272108145	45
0	777	41.465903404109	44
0	779	41.474712078263	43
0	782	41.492262302876	44
0	784	41.565552561243	45
0	785	41.683909680005	44
0	788	41.737886059602	45
0	789	41.801698637246	44
0	791	41.943578505303	43
0	794	41.945335078423	44
0	795	41.951499127848	43
0	798	42.057900118786	44
0	800	42.092739150861	45
0	802	42.123796267962	46
0	803	42.130336767309	45
0	806	42.18883044206	46
0	808	42.267641956449	47
0	810	42.299444359809	48
0	812	42.340881396259	49
0	813	42.386034752545	48
0	815	42.576321136619	47
0	817	42.748985280929	46
0	819	42.759633002883	45
0	822	42.809529382278	46
0	823	42.826786115833	45
0	825	42.845841854611	44
0	827	42.980834780754	43
0	830	43.237013720361	44
0	831	43.512574340464	43
0	833	43.624598887575	42
0	835	43.635392035064	41
0	838	43.656340975066	42
0	840	43.890593714055	43
0	842	44.131136470821	44
0	844	44.383064704946	45
0	846	44.388553125032	46
0	847	44.408869016528	45
0	849	44.439060003948	44
0	851	44.599281627221	43
0	853	44.637780537829	42
0	855	44.638860125833	41
0	858	44.651457544649	42
0	859	45.164073646355	41
0	861	45.222394128665	40
0	864	45.291108540003	41
0	865	45.42460012547	40
0	868	45.469908820539	41
0	870	45.592120332796	42
0	871	46.100676674483	41
0	874	46.198908847276	42
0	875	46.2075978725	41
0	877	46.226467121511	40
0	880	46.542722709634	41
0	881	46.753406675177	40
0	883	46.782721361453	39
0	885	46.801823583406	38
0	887	46.823652319232	37
0	890	46.880769700586	38
0	891	46.932693064866	37
0	894	46.982413591397	38
0	895	47.260688827172	37
0	897	47.382063621942	36
0	899	47.512541573354	35
0	902	47.534534482534	36
0	903	47.578393817486	35
0	905	47.72752285401	34
0	907	47.734974662163	33
0	909	47.855987362915	32
0	912	47.91268031342	33
0	914	48.000495710538	34
0	916	48.088726672684	35
0	918	48.092019329481	36
0	919	48.20730116891	35
0	921	48.376567076214	34
0	924	48.465347423517	35
0	925	48.54562884324	34
0	927	48.557171445446	33
0	929	48.660516663891	32
0	932	48.693403198901	33
0	934	49.100662036355	34
0	936	49.221748792683	35
0	938	49.239850286713	36
0	940	49.29399516486	37
0	941	49.619470133097	36
0	943	49.623169864398	35
0	946	49.659903596032	36
0	948	49.80383257557	37
0	949	49.867013470978	36
0	951	49.890279113937	35
0	954	50.013701008755	36
0	956	50.020301805766	37
0	957	50.063322114153	36
0	959	50.127550249933	35
0	962	50.193874179744	36
0	964	50.328945353778	37
0	965	50.451923139385	36
0	967	50.663913532569	35
0	969	50.694776884448	34
0	972	51.128458049122	35
0	973	51.49988055051	34
0	975	51.505021389701	33
0	977	51.678611552302	32
0	979	51.760267130878	31
0	981	51.818966460971	30
0	983	52.014869275209	29
0	986	52.056514048312	30
0	988	52.260857717794	31
0	989	52.350881076215	30
0	992	52.352663303291	31
0	993	52.373167347984	30
0	995	52.55122006529	29
0	997	52.588646159447	28
0	999	52.604717524021	27
0	1002	52.658451077433	28
0	1003	52.665504666465	27
0	1005	52.770931459251	26
0	1007	52.833069735882	25
0	1010	52.875691739664	26
0	1011	52.943612399879	25
0	1013	53.12570710002	24
0	1015	53.201443627705	23
0	1018	53.260439453798	24
0	1019	53.468406927099	23
0	1022	53.606263381335	24
0	1024	53.713443140403	25
0	1025	53.73815601379	24
0	1028	53.802871120922	25
0	1030	53.89311888062	26
0	1032	53.902538734831	27
0	1034	54.02177311311	28
0	1035	54.119926972649	27
0	1037	54.491114996176	26
0	1039	54.523826084246	25
0	1042	54.575602009678	26
0	1043	54.989457821843	25
0	1045	55.252245609415	24
0	1048	55.270173150859	25
0	1050	55.340526627945	26
0	1051	55.511112433903	25
0	1053	55.571936431543	24
0	1055	55.603496432035	23
0	1057	55.631998780182	22
0	1059	55.644312679708	21
0	1061	55.718274798932	20
0	1064	56.306470677539	21
0	1066	56.359633987343	22
0	1068	56.593721133346	23
0	1070	56.605746807172	24
0	1071	56.713214328753	23
0	1073	56.739797235931	22
0	1076	56.868139423389	23
0	1078	56.931750332427	24
0	1079	56.974614499331	23
0	1082	57.027053496622	24
0	1083	57.077749551492	23
0	1086	57.105485754547	24
0	1088	57.159796912883	25
0	1090	57.197509857733	26
0	1092	57.316819841108	27
0	1093	57.381670549059	26
0	1096	57.751065017379	27
0	1097	57.783726327979	26
0	1100	57.805359010665	27
0	1102	57.967457640101	28
0	1103	58.078724707389	27
0	1106	58.168480769815	28
0	1107	58.253673591677	27
0	1110	58.315125837551	28
0	1112	58.320111456697	29
0	1114	58.352339972462	30
0	1115	58.563533881973	29
0	1117	58.969671102813	28
0	1119	59.16805213612	27
0	1122	59.389365857069	28
0	1123	59.439681708852	27
0	1125	59.554004706925	26
0	1128	59.57858620532	27
0	1130	59.697252318972	28
0	1131	59.799185517903	27
0	1133	59.830149452097	26
0	1136	59.935448609651	27
0	1138	59.956527835633	28
0	1139	59.987011543079	27
0	1141	60.483656437045	26
0	1143	60.491927536053	25
0	1146	60.601591052376	26
0	1148	60.759912871297	27
0	1150	60.824180931871	28
0	1152	61.003591534692	29
0	1154	61.052140622164	30
0	1156	61.22559902593	31
0	1157	61.247764682398	30
0	1160	61.288994501907	31
0	1161	61.317909713049	30
0	1163	61.430920547967	29
0	1165	61.436602717741	28
0	1167	61.530840461507	27
0	1170	61.990807212108	28
0	1172	62.237424957551	29
0	1173	62.253423877311	28
0	1176	62.330797826264	29
0	1178	62.336173950166	30
0	1180	62.417319218939	31
0	1182	62.933141845096	32
0	1183	62.996746524435	31
0	1185	63.037362016474	30
0	1187	63.053834165275	29
0	1190	63.329704361151	30
0	1192	63.447871405232	31
0	1193	63.563689899039	30
0	1196	63.591544572274	31
0	1197	63.610818412206	30
0	1199	63.718422262542	29
0	1201	63.84393702931	28
0	1204	63.861034337012	29
0	1205	63.927010329264	28
0	1207	64.063377118132	27
0	1210	64.440057860416	28
0	1211	64.554777885374	27
0	1213	64.646758050342	26
0	1216	64.666149300079	27
0	1218	64.825123867292	28
0	1219	64.870927750179	27
0	1222	64.888802470503	28
0	1224	64.955254595219	29
0	1226	64.961394949821	30
0	1227	65.129831460162	29
0	1230	65.209202251297	30
0	1231	65.247366168078	29
0	1233	65.25009782093	28
0	1236	65.302461656585	29
0	1237	65.499632682701	28
0	1239	65.647501712265	27
0	1241	65.668127897539	26
0	1244	65.812956955294	27
0	1245	65.821815718876	26
0	1247	65.824523219724	25
0	1250	65.846316106918	26
0	1251	65.946462283875	25
0	1253	66.053544263676	24
0	1255	66.055424827778	23
0	1257	66.091417969724	22
0	1260	66.319574159687	23
0	1262	66.554388187046	24
0	1264	66.726531128549	25
0	1265	66.854684614255	24
0	1268	66.964196960606	25
0	1269	67.025078307601	24
0	1272	67.221775008428	25
0	1274	67.222316383344	26
0	1276	67.430685276308	27
0	1278	67.61413963569	28
0	1280	67.791845378155	29
0	1281	68.00623705963	28
0	1284	68.449975144207	29
0	1285	68.548018798899	28
0	1288	68.688438299051	29
0	1289	68.739751655201	28
0	1291	68.818176867905	27
0	1294	68.9195332448	28
0	1296	68.925439607033	29
0	1297	68.933217650111	28
0	1299	68.955724041933	27
0	1301	69.041731328474	26
0	1303	69.170092566381	25
0	1306	69.429417345802	26
0	1308	69.526027950655	27
0	1310	69.854698597696	28
0	1312	69.978309073124	29
0	1314	70.133231820395	30
0	1316	70.569774598252	31
0	1317	70.729802981345	30
0	1320	70.994005489621	31
0	1322	71.022655230378	32
0	1323	71.048087902726	31
0	1326	71.17999185347	32
0	1327	71.274033675951	31
0	1330	71.319712566859	32
0	1331	71.378973181159	31
0	1334	71.475946324857	32
0	1335	71.550470887502	31
0	1337	71.676048595089	30
0	1340	71.989532850597	31
0	1341	72.065746325339	30
0	1343	72.080242312601	29
0	1346	72.679734876469	30
0	1348	72.702240865745	31
0	1350	72.778343055457	32
0	1352	72.834957542626	33
0	1353	72.912838074848	32
0	1356	73.000422727347	33
0	1357	73.03055443823	32
0	1360	73.035404779366	33
0	1362	73.21763394098	34
0	1364	73.272007108695	35
0	1365	73.3169136354	34
0	1367	73.355331750626	33
0	1369	73.372675676437	32
0	1372	73.445930180862	33
0	1374	73.561988098459	34
0	1376	73.577902129478	35
0	1377	73.729769298317	34
0	1380	73.816352577894	35
0	1381	73.995864951674	34
0	1383	74.000311325216	33
0	1385	74.125587270268	32
0	1387	74.132387046619	31
0	1390	74.237908649575	32
0	1391	74.292768525323	31
0	1393	74.315184917366	30
0	1395	74.463313919105	29
0	1397	74.65158089517	28
0	1400	74.714522304213	29
0	1402	74.937826018925	30
0	1404	75.085876457208	31
0	1405	75.153927582742	30
0	1408	75.163175293617	31
0	1410	75.253117967206	32
0	1412	75.380338658079	33
0	1414	75.38137928464	34
0	1416	76.08417504923	35
0	1418	76.302224166522	36
0	1420	76.371609943153	37
0	1422	76.41632975482	38
0	1423	76.517027808861	37
0	1425	76.619831654659	36
0	1427	76.741924783977	35
0	1430	76.936264403889	36
0	1431	76.956230323819	35
0	1434	77.003079420501	36
0	1435	77.287075918567	35
0	1438	77.445724866808	36
0	1439	77.446048410825	35
0	1442	77.537475127337	36
0	1444	77.716812294654	37
0	1445	77.735802864379	36
0	1448	77.829863350916	37
0	1450	77.858508005212	38
0	1452	77.878871133607	39
0	1454	78.090159332443	40
0	1455	78.123349511914	39
0	1458	78.435037709537	40
0	1459	78.478558363522	39
0	1461	78.482770131277	38
0	1464	78.536290502953	39
0	1466	78.623030397033	40
0	1468	78.878630822866	41
0	1470	79.10160419368	42
0	1472	79.163643418333	43
0	1473	79.278451661085	42
0	1476	79.329695547686	43
0	1477	79.521045749503	42
0	1479	79.560796977867	41
0	1482	79.618957062117	42
0	1484	79.700700592964	43
0	1486	79.732660549051	44
0	1488	79.788048994117	45
0	1489	79.824390283193	44
0	1491	79.890820383961	43
0	1494	79.901274904456	44
0	1495	79.972015425641	43
0	1497	79.993765920115	42
0	1500	80.197909586063	43
0	1502	80.276553043461	44
0	1503	80.695100438015	43
0	1506	80.827795658957	44
0	1507	80.996072322718	43
0	1509	81.013871518336	42
0	1512	81.204768581798	43
0	1513	81.92013463551	42
0	1516	82.024755440332	43
0	1517	82.164750745243	42
0	1519	82.217394168061	41
0	1521	82.295823905526	40
0	1524	82.328429270011	41
0	1525	82.331011632464	40
0	1527	82.400167912754	39
0	1529	82.517794329174	38
0	1532	82.559424176725	39
0	1534	82.561218454192	40
0	1536	82.580131801492	41
0	1538	82.773218961431	42
0	1540	82.869614803343	43
0	1542	82.90664601404	44
0	1543	83.273579211741	43
0	1545	83.286849176972	42
0	1547	83.356421340257	41
0	1550	83.360439831365	42
0	1552	83.385061922348	43
0	1553	83.426386892081	42
0	1556	83.507212757321	43
0	1557	83.582602368125	42
0	1559	83.605771540349	41
0	1562	83.617440346984	42
0	1564	83.642397851456	43
0	1566	83.705683329694	44
0	1568	83.809116715108	45
0	1569	83.81980784458	44
0	1571	83.833156190618	43
0	1574	83.911219230295	44
0	1575	83.955571209895	43
0	1578	83.995757187908	44
0	1580	84.09781146746	45
0	1582	84.199697169504	46
0	1584	84.29361877593	47
0	1585	84.383075332287	46
0	1587	84.39905086507	45
0	1589	84.507047204686	44
0	1592	84.510328413589	45
0	1594	84.733151360882	46
0	1596	84.811488268858	47
0	1598	84.887512075126	48
0	1599	85.077372797765	47
0	1601	85.134490707502	46
0	1604	85.245842942303	47
0	1606	85.323282435751	48
0	1608	85.329364034504	49
0	1610	85.596677717969	50
0	1612	85.619936051322	51
0	1613	85.627916976485	50
0	1615	85.657315342457	49
0	1618	85.806373399435	50
0	1620	85.812389958542	51
0	1621	85.924561598342	50
0	1623	85.948548608339	49
0	1625	86.074617192196	48
0	1628	86.252553333415	49
0	1630	86.258478283874	50
0	1631	86.296670205788	49
0	1633	86.467584942661	48
0	1636	86.812098295412	49
0	1638	86.902955810824	50
0	1640	86.990726646232	51
0	1641	87.166619679383	50
0	1644	87.3679496676	51
0	1645	87.407559946067	50
0	1647	87.547793605847	49
0	1649	87.650567315668	48
0	1652	87.737967511574	49
0	1654	87.811421145074	50
0	1655	87.871342681006	49
0	1657	87.881151500056	48
0	1659	87.951770984792	47
0	1662	87.965547357234	48
0	1664	87.98662258536	49
0	1665	88.006826706481	48
0	1668	88.048210344476	49
0	1669	88.058247037897	48
0	1671	88.073175331068	47
0	1673	88.128587783701	46
0	1676	88.19242082536	47
0	1678	88.676688154649	48
0	1679	88.768742164366	47
0	1681	88.969896694045	46
0	1684	89.109169143194	47
0	1686	89.189919724617	48
0	1688	89.439523370874	49
0	1689	89.470555090321	48
0	1691	89.589056665653	47
0	1694	89.589777845608	48
0	1696	89.688086917359	49
0	1698	89.723051317366	50
0	1699	89.730930992557	49
0	1702	89.809271682809	50
0	1704	90.219019281524	51
0	1706	90.453762827099	52
0	1707	90.476863140191	51
0	1709	90.633517551911	50
0	1711	90.728859069684	49
0	1713	90.828610021717	48
0	1715	90.895558150663	47
0	1718	90.954194423607	48
0	1719	91.04851882248	47
0	1722	91.048640173336	48
0	1723	91.080755807237	47
0	1725	91.114011902422	46
0	1727	91.14513136552	45
0	1730	91.208821909908	46
0	1731	91.371220991239	45
0	1734	91.437799199802	46
0	1736	91.458315051781	47
0	1737	91.529985915731	46
0	1739	91.557455304456	45
0	1741	91.723585922556	44
0	1743	91.781061765521	43
0	1745	91.810252460876	42
0	1747	91.820798644784	41
0	1750	91.840226055482	42
0	1751	91.917655672998	41
0	1753	91.939294948747	40
0	1756	92.028029776187	41
0	1758	92.065319703025	42
0	1759	92.224794138192	41
0	1762	92.297222896226	42
0	1764	92.55154489669	43
0	1765	92.929738133876	42
0	1767	93.017311554973	41
0	1769	93.17318949157	40
0	1772	93.230131039618	41
0	1774	93.337455456212	42
0	1776	93.444892203629	43
0	1777	93.530247295325	42
0	1780	93.701051468243	43
0	1782	93.794068616993	44
0	1784	93.794345479514	45
0	1786	93.851265516312	46
0	1788	93.927879129729	47
0	1789	93.991987349611	46
0	1791	94.105498626932	45
0	1793	94.307926588753	44
0	1796	94.319362808177	45
0	1798	94.401288240193	46
0	1799	94.457510464122	45
0	1802	94.826474354182	46
0	1804	94.930080165606	47
0	1805	94.949292662726	46
0	1808	95.381497593932	47
0	1810	95.695425264854	48
0	1812	95.920635824394	49
0	1814	95.976814055493	50
0	1815	96.066587160685	49
0	1817	96.126508302513	48
0	1820	96.273405928369	49
0	1821	96.277507943154	48
0	1823	96.392429992434	47
0	1826	96.529023187147	48
0	1827	96.537520608449	47
0	1830	96.572163155402	48
0	1831	96.687370369631	47
0	1833	96.771710161665	46
0	1836	96.873333384018	47
0	1838	96.90328242567	48
0	1839	96.976244884631	47
0	1842	97.014622958489	48
0	1844	97.031075471583	49
0	1845	97.054972472543	48
0	1847	97.090627674611	47
0	1850	97.290642785412	48
0	1852	97.59537684148	49
0	1854	97.652126861988	50
0	1856	97.674898993449	51
0	1858	97.842865693726	52
0	1860	97.899486059524	53
0	1862	98.080968643512	54
0	1863	98.313604584927	53
0	1866	98.376883671778	54
0	1868	98.916190642562	55
0	1870	99.01563993653	56
0	1872	99.071101442316	57
0	1874	99.121942374858	58
0	1876	99.130105274928	59
0	1877	99.133076947227	58
0	1880	99.334271758739	59
0	1882	99.570552838457	60
0	1883	99.710098562045	59
0	1886	99.814808873838	60
0	1888	100.061719647794	61
0	1889	100.074725356592	60
0	1891	100.20849231426	59
0	1893	100.303920875951	58
0	1895	100.404766001837	57
0	1897	100.655380073546	56
0	1900	100.678999075572	57
0	1901	100.772150938339	56
0	1904	100.772373511064	57
0	1905	100.918100430711	56
0	1908	100.96676878968	57
0	1910	100.984549634659	58
0	1912	101.037648643189	59
0	1913	101.05239581018	58
0	1916	101.054623387951	59
0	1917	101.131202634798	58
0	1920	101.146278300562	59
0	1922	101.372955952621	60
0	1924	101.404214481121	61
0	1925	101.432031892979	60
0	1927	101.446685023172	59
0	1929	101.46835387428	58
0	1931	101.50212138636	57
0	1934	101.515031310091	58
0	1935	101.527807894024	57
0	1938	101.533508813842	58
0	1939	101.607858950453	57
0	1942	101.784124432642	58
0	1943	101.78650009927	57
0	1946	101.818791936888	58
0	1947	101.832563628018	57
0	1950	101.843375094518	58
0	1951	102.07205918609	57
0	1953	102.183668129059	56
0	1956	102.228835993969	57
0	1958	102.234054786962	58
0	1960	102.245860597533	59
0	1962	102.262550201045	60
0	1963	102.27263504295	59
0	1965	102.387002155963	58
0	1968	102.408154777644	59
0	1970	102.414715888589	60
0	1972	102.536730046844	61
0	1973	102.541764515943	60
0	1975	102.579188074266	59
0	1977	102.822166371363	58
0	1980	102.885092851136	59
0	1981	103.009180003582	58
0	1984	103.013258065436	59
0	1985	103.106937446619	58
0	1988	103.466856143603	59
0	1989	103.543062181658	58
0	1992	103.572289901542	59
0	1993	103.603327737995	58
0	1996	103.815062014155	59
0	1997	103.842552471977	58
0	2000	104.254815072088	59
0	2002	104.255848329309	60
0	2004	104.49278555944	61
0	2006	104.996703591231	62
0	2007	105.033408627564	61
0	2009	105.076265968799	60
0	2011	105.281238427016	59
0	2013	105.426595747568	58
0	2016	105.429629026366	59
0	2018	105.456950798304	60
0	2019	105.583590201284	59
0	2022	105.651244389018	60
0	2024	105.717734773335	61
0	2026	105.740201709465	62
0	2028	105.869815781402	63
0	2030	106.045997304857	64
0	2032	106.104502919442	65
0	2034	106.149384360148	66
0	2036	106.352526894759	67
0	2037	106.496528656742	66
0	2040	106.638570764411	67
0	2042	106.679611328077	68
0	2043	106.748676115585	67
0	2046	106.831754648444	68
0	2047	106.943423821408	67
0	2049	107.027153819257	66
0	2051	107.052260947809	65
0	2053	107.117400176247	64
0	2056	107.163473325825	65
0	2058	107.225433752737	66
0	2060	107.296273475554	67
0	2062	107.559436321911	68
0	2063	107.642622273563	67
0	2065	107.71205985163	66
0	2067	107.749720377045	65
0	2070	107.819494150317	66
0	2071	107.911594908988	65
0	2074	107.913813294407	66
0	2076	108.231339151921	67
0	2077	108.243883969099	66
0	2080	108.315819841802	67
0	2081	108.365582806245	66
0	2083	108.658491763343	65
0	2085	108.89044518635	64
0	2087	108.940795315236	63
0	2090	108.979233317344	64
0	2092	109.095669527971	65
0	2094	109.174366007365	66
0	2096	109.311765134546	67
0	2098	109.34956083789	68
0	2100	109.367343710359	69
0	2102	109.48790589196	70
0	2104	110.02752250055	71
0	2105	110.253367169182	70
0	2108	110.315600821551	71
0	2109	110.366273013053	70
0	2111	110.732607053076	69
0	2114	110.754554231308	70
0	2116	110.879033836177	71
0	2118	110.940507290727	72
0	2119	111.126933337089	71
0	2121	111.198474045585	70
0	2124	111.358045343353	71
0	2126	111.383639332326	72
0	2128	111.465074768434	73
0	2129	111.474323502464	72
0	2132	111.489711442892	73
0	2133	111.494091718981	72
0	2135	111.500533192297	71
0	2137	111.651865642023	70
0	2140	111.76555451304	71
0	2142	111.785839469718	72
0	2144	112.047297746718	73
0	2146	112.219947455571	74
0	2148	112.293114423399	75
0	2149	112.517918990582	74
0	2152	112.576353119498	75
0	2153	112.799537917035	74
0	2155	113.035148027237	73
0	2158	113.156252850233	74
0	2159	113.215650892179	73
0	2161	113.288638277522	72
0	2163	113.300194017401	71
0	2166	113.322581440774	72
0	2168	113.484358178497	73
0	2170	113.835090981964	74
0	2171	114.063904733943	73
0	2174	114.093705369539	74
0	2175	114.125451230469	73
0	2177	114.614936995909	72
0	2180	114.75841779482	73
0	2182	114.965218959368	74
0	2183	115.061046458686	73
0	2185	115.072603480305	72
0	2188	115.225228161204	73
0	2189	115.265872488215	72
0	2192	115.507882124261	73
0	2194	115.57869988428	74
0	2195	115.831797112568	73
0	2197	115.875893496069	72
0	2199	115.895667545768	71
0	2201	116.080617629245	70
0	2203	116.238862919145	69
0	2205	116.2555025581	68
0	2208	116.571106433259	69
0	2210	116.65655595652	70
0	2211	116.693578986194	69
0	2214	116.71213856588	70
0	2216	116.812721049216	71
0	2218	116.887177405844	72
0	2219	116.962680729115	71
0	2222	116.986835169286	72
0	2223	117.097795702296	71
0	2226	117.247057696858	72
0	2228	117.296151593286	73
0	2229	117.619968116891	72
0	2231	117.658944287293	71
0	2233	117.903336479568	70
0	2235	117.941140771917	69
0	2238	118.030663510334	70
0	2240	118.146904970956	71
0	2241	118.206696427316	70
0	2244	118.27771368346	71
0	2245	118.326983558802	70
0	2248	118.55810907286	71
0	2249	118.749703424718	70
0	2251	118.900275591862	69
0	2253	118.927620989532	68
0	2255	118.94143812796	67
0	2258	118.998562761948	68
0	2260	119.022206000955	69
0	2262	119.145062056678	70
0	2264	119.222882068359	71
0	2265	119.263263711963	70
0	2268	119.298988010378	71
0	2270	119.43412847353	72
0	2272	119.449148707703	73
0	2274	119.514881119237	74
0	2276	119.780345713735	75
0	2277	120.370401957152	74
0	2280	120.482178635564	75
0	2282	120.623349034586	76
0	2283	121.294244470745	75
0	2285	121.465795111735	74
0	2287	121.514134335746	73
0	2289	121.652615074039	72
0	2291	121.905236830407	71
0	2293	121.913879995372	70
0	2295	121.989304735061	69
0	2298	122.335552686448	70
0	2300	122.337498787634	71
0	2301	122.571808122321	70
0	2304	122.594927208796	71
0	2306	122.773665587145	72
0	2307	122.845655779655	71
0	2310	122.909262691487	72
0	2311	122.944160400102	71
0	2313	123.132465910243	70
0	2315	123.158930703296	69
0	2317	123.217681261972	68
0	2320	123.268394079255	69
0	2322	123.270843247024	70
0	2324	123.348809696328	71
0	2326	123.400970327574	72
0	2327	123.542185291177	71
0	2330	123.542363960385	72
0	2332	123.594743878501	73
0	2334	123.619885256254	74
0	2336	123.628197680014	75
0	2337	123.672993779373	74
0	2339	123.701550723138	73
0	2342	123.758870373457	74
0	2343	123.896614192752	73
0	2345	124.094316742785	72
0	2348	124.215340486454	73
0	2350	124.306558839599	74
0	2351	124.372521201181	73
0	2353	124.77962348279	72
0	2356	124.840823773682	73
0	2357	124.866432421023	72
0	2360	125.011530107751	73
0	2362	125.158357871017	74
0	2364	125.164586057707	75
0	2365	125.564806090876	74
0	2367	125.620397973798	73
0	2370	125.779003785752	74
0	2372	125.801743391436	75
0	2373	125.812466565177	74
0	2376	125.869550956968	75
0	2378	125.876129210929	76
0	2380	126.115964350141	77
0	2381	126.16109742068	76
0	2384	126.250421072474	77
0	2386	126.428077892906	78
0	2388	126.70794580539	79
0	2390	126.761739911058	80
0	2392	126.955519991636	81
0	2394	127.007496382052	82
0	2396	127.03625865301	83
0	2398	127.571210531782	84
0	2400	127.793405201054	85
0	2402	128.21135997859	86
0	2403	128.216150036113	85
0	2406	128.264252890973	86
0	2408	128.291957259395	87
0	2410	128.419483603246	88
0	2412	128.433588076165	89
0	2414	128.640422323919	90
0	2416	128.698282189553	91
0	2418	128.817931232624	92
0	2420	128.885951149253	93
0	2422	129.394099836688	94
0	2423	129.420940183422	93
0	2425	129.465871852635	92
0	2428	129.513743311641	93
0	2430	129.522746207807	94
0	2432	129.676234992414	95
0	2434	129.873313041324	96
0	2436	130.133368387215	97
0	2438	130.13828281637	98
0	2439	130.165164937055	97
0	2441	130.21412717719	96
0	2444	130.250747301363	97
0	2445	130.330277376115	96
0	2447	130.423410065447	95
0	2450	130.634546786298	96
0	2451	130.636252091884	95
0	2453	130.651322241876	94
0	2455	130.753208345297	93
0	2457	130.757815827821	92
0	2459	130.75931191318	91
0	2461	131.293147536186	90
0	2464	131.330633070371	91
0	2465	131.36587620144	90
0	2468	131.389806511808	91
0	2470	131.442800938952	92
0	2472	131.517196140637	93
0	2473	131.738855678286	92
0	2475	131.767645524157	91
0	2478	131.830498101674	92
0	2480	131.849740400508	93
0	2482	131.901825414406	94
0	2483	131.905780098955	93
0	2485	131.907537084428	92
0	2487	131.989753138735	91
0	2489	131.991009348255	90
0	2491	132.078858519603	89
0	2494	132.133125567637	90
0	2496	132.150518603174	91
0	2497	132.157601628808	90
0	2500	132.161003806944	91
0	2502	132.371670929652	92
0	2504	132.40465228084	93
0	2506	132.404785168085	94
0	2507	132.933780070882	93
0	2509	132.943145783979	92
0	2512	132.973105359254	93
0	2513	132.979025671707	92
0	2516	133.014239183246	93
0	2518	133.041340748774	94
0	2520	133.102822378806	95
0	2521	133.725654236958	94
0	2524	133.841357123049	95
0	2525	133.907748637745	94
0	2527	133.954881640543	93
0	2530	133.988433571524	94
0	2532	134.044276779181	95
0	2533	134.122311317048	94
0	2535	134.244636694547	93
0	2537	134.350394776196	92
0	2540	134.439110117245	93
0	2542	134.538944467921	94
0	2543	134.587143984779	93
0	2546	135.056571201195	94
0	2547	135.125070569953	93
0	2549	135.14397267898	92
0	2552	135.205281298658	93
0	2554	135.230911015838	94
0	2555	135.240179527307	93
0	2557	135.254269101282	92
0	2560	135.512129719251	93
0	2562	135.533257774362	94
0	2563	135.730132005074	93
0	2565	135.812240897051	92
0	2568	135.817836626657	93
0	2569	135.817919435789	92
0	2571	136.160393730641	91
0	2573	136.370419517647	90
0	2575	136.384208992539	89
0	2577	136.472642674991	88
0	2580	136.500419279194	89
0	2582	136.562345924348	90
0	2583	136.618022782444	89
0	2585	136.686028674289	88
0	2587	136.7449663585	87
0	2590	136.891793124955	88
0	2591	137.132411338098	87
0	2593	137.295864703283	86
0	2595	137.464130321095	85
0	2598	137.733188449013	86
0	2599	137.937702941416	85
0	2601	137.960261198549	84
0	2603	138.14770372358	83
0	2605	138.218042452854	82
0	2607	138.352957567589	81
0	2609	138.416395552649	80
0	2612	138.429027288598	81
0	2613	138.489396796925	80
0	2616	138.539213683509	81
0	2617	138.566635622201	80
0	2619	138.586298018079	79
0	2622	138.633326578751	80
0	2624	138.885105779781	81
0	2625	138.924483088903	80
0	2628	139.032760805565	81
0	2630	139.506145900196	82
0	2632	139.845106185105	83
0	2634	140.005958284669	84
0	2635	140.186312528214	83
0	2638	140.387808382658	84
0	2639	140.429271780955	83
0	2642	140.444089529531	84
0	2643	140.467921657844	83
0	2645	140.476484960464	82
0	2648	140.64339011762	83
0	2650	140.990564073785	84
0	2652	141.054998147149	85
0	2654	141.146926752758	86
0	2656	141.385037312111	87
0	2658	141.491390498467	88
0	2660	141.527292237665	89
0	2661	141.843040123269	88
0	2663	141.954930945471	87
0	2666	141.975727169087	88
0	2668	142.035076526245	89
0	2669	142.143209435927	88
0	2672	142.295878424846	89
0	2673	142.339528471256	88
0	2676	142.399095369984	89
0	2678	142.421990315862	90
0	2680	142.521611336201	91
0	2682	142.571616193315	92
0	2684	142.801845746145	93
0	2686	142.841896337129	94
0	2687	142.857321850861	93
0	2690	142.878270165546	94
0	2691	142.89294663867	93
0	2693	142.975162474076	92
0	2696	143.019453000315	93
0	2697	143.069900085417	92
0	2699	143.078111832358	91
0	2701	143.127803475038	90
0	2704	143.313069982882	91
0	2705	143.348922444061	90
0	2708	143.365491376589	91
0	2710	143.446433749647	92
0	2711	143.462760281371	91
0	2714	143.984817544512	92
0	2715	144.147797196979	91
0	2717	144.533531711881	90
0	2720	144.865400422696	91
0	2722	144.866466265712	92
0	2724	144.878912709158	93
0	2725	145.254114965304	92
0	2727	145.291421826117	91
0	2729	145.31927839721	90
0	2732	145.335846536949	91
0	2734	145.357715439656	92
0	2736	145.375017994949	93
0	2737	145.380342702181	92
0	2739	145.569060054632	91
0	2742	145.665361699649	92
0	2744	145.755629152979	93
0	2746	145.812306723014	94
0	2748	145.945519023397	95
0	2749	145.975555511101	94
0	2752	146.214555472443	95
0	2753	146.429423454067	94
0	2755	146.483714662318	93
0	2757	146.584978882859	92
0	2759	146.652344987658	91
0	2761	146.751824124945	90
0	2764	146.752439350126	91
0	2766	146.78157134976	92
0	2768	147.036354473283	93
0	2770	147.55546409449	94
0	2771	147.706725315558	93
0	2774	147.773989493683	94
0	2775	147.965005139846	93
0	2777	147.989412271833	92
0	2780	148.076278245252	93
0	2782	148.285976688754	94
0	2783	148.405875535194	93
0	2786	148.539843355377	94
0	2787	148.627675236271	93
0	2789	148.751200243026	92
0	2792	148.878571187824	93
0	2794	148.943257122908	94
0	2796	149.035513015487	95
0	2798	149.131085953364	96
0	2799	149.284523748919	95
0	2802	149.295486981502	96
0	2804	149.467759064804	97
0	2805	149.653284295477	96
0	2807	149.655446274767	95
0	2809	149.689531824218	94
0	2812	149.768214946379	95
0	2813	149.801628520432	94
0	2815	149.940212255152	93
0	2818	150.338315388344	94
0	2819	150.422369897943	93
0	2822	150.731982276379	94
0	2823	150.742884201053	93
0	2826	150.81638935381	94
0	2827	150.878815957169	93
0	2830	151.154112678493	94
0	2831	151.205672766052	93
0	2834	151.362493657255	94
0	2836	151.368910421361	95
0	2838	151.698508548574	96
0	2840	151.708979385993	97
0	2841	151.738565608231	96
0	2844	151.906300947913	97
0	2845	151.906769054	96
0	2848	151.918865954312	97
0	2849	151.927241388431	96
0	2851	152.090475609804	95
0	2853	152.103149688976	94
0	2855	152.287645803872	93
0	2858	152.375640143015	94
0	2859	152.619299599453	93
0	2861	152.619451793154	92
0	2864	153.181889094469	93
0	2866	153.207141360576	94
0	2867	153.700833082296	93
0	2870	153.764093484335	94
0	2872	153.88666967945	95
0	2874	154.169943344869	96
0	2876	154.337029144361	97
0	2878	154.378143106122	98
0	2880	154.400270457323	99
0	2882	154.430233576123	100
0	2883	154.630110248344	99
0	2885	154.631136702576	98
0	2888	154.671990953867	99
0	2889	154.738880611511	98
0	2892	154.770250816921	99
0	2893	154.795381367463	98
0	2895	154.816745565714	97
0	2898	154.858398786299	98
0	2900	154.895499153024	99
0	2901	155.036505275094	98
0	2903	155.34684431657	97
0	2905	155.382917123693	96
0	2907	155.432270263231	95
0	2910	155.56652404561	96
0	2912	155.638790576785	97
0	2913	155.972523171967	96
0	2915	156.001316960031	95
0	2917	156.100825751979	94
0	2919	156.107336453733	93
0	2922	156.352215536143	94
0	2924	156.48146946012	95
0	2925	156.61909110761	94
0	2928	156.758489631398	95
0	2930	156.783810307513	96
0	2932	156.891908985918	97
0	2933	156.920080643679	96
0	2936	157.196177658926	97
0	2938	157.227610343399	98
0	2940	157.270759065081	99
0	2941	157.359251949112	98
0	2944	157.393950077443	99
0	2945	157.435502848186	98
0	2947	158.117971574505	97
0	2949	158.236189937376	96
0	2952	158.527297188753	97
0	2954	158.922805576547	98
0	2956	159.011781036208	99
0	2957	159.08912127014	98
0	2959	159.172362385695	97
0	2961	159.284319867252	96
0	2964	159.449098808426	97
0	2966	159.959548982469	98
0	2967	160.054152551946	97
0	2969	160.088150956449	96
0	2971	160.241571749316	95
0	2974	160.253595621458	96
0	2976	160.292781490246	97
0	2977	160.341342958154	96
0	2980	160.486326497871	97
0	2982	160.557847619578	98
0	2983	160.68845481427	97
0	2986	160.71863671151	98
0	2988	160.846871490698	99
0	2989	160.951117413029	98
0	2991	161.053594176761	97
0	2993	161.060718903407	96
0	2996	161.071735009819	97
0	2998	161.140847357162	98
0	2999	161.560907498821	97
0	3001	161.611381553559	96
0	3003	161.644497564169	95
0	3006	161.955639447646	96
0	3008	162.04903497492	97
0	3010	162.135310676693	98
0	3011	162.252172393491	97
0	3014	162.262283954027	98
0	3015	162.379599393885	97
0	3017	162.425020030204	96
0	3019	162.835391476205	95
0	3022	162.849050293588	96
0	3023	162.935813471291	95
0	3025	162.938572377943	94
0	3027	163.069093146513	93
0	3030	163.251719144755	94
0	3031	163.264677624021	93
0	3033	163.28286112407	92
0	3035	163.66452638199	91
0	3038	163.886431371294	92
0	3040	163.907555355894	93
0	3042	164.140802745565	94
0	3044	164.255113816259	95
0	3045	164.273864710363	94
0	3047	164.424909429415	93
0	3050	164.572508761714	94
0	3052	164.715186985374	95
0	3054	164.773384009546	96
0	3055	164.798363191773	95
0	3058	164.982795821576	96
0	3059	165.272964014898	95
0	3062	165.275998040265	96
0	3064	165.287044257179	97
0	3065	165.287335726529	96
0	3068	165.387954242789	97
0	3070	165.437857980324	98
0	3071	165.566170956695	97
0	3074	165.723175646605	98
0	3075	165.940000936988	97
0	3078	166.021282405452	98
0	3080	166.173279004669	99
0	3081	166.203756234444	98
0	3083	166.207918245241	97
0	3085	166.225272061506	96
0	3087	166.228429949859	95
0	3090	166.262882500098	96
0	3092	166.60973733718	97
0	3094	167.011921591599	98
0	3095	167.138583680418	97
0	3097	167.371130699331	96
0	3099	167.393352460382	95
0	3101	167.570321510763	94
0	3103	167.585367841811	93
0	3105	167.649010212913	92
0	3108	167.659801215513	93
0	3110	167.732583341346	94
0	3112	167.895866720232	95
0	3113	168.455897237616	94
0	3115	168.48398079204	93
0	3117	168.540253872329	92
0	3119	168.698625388	91
0	3122	168.704348674239	92
0	3124	168.757224221673	93
0	3126	168.907258639159	94
0	3127	168.939795838899	93
0	3130	168.961495261067	94
0	3132	169.021192430169	95
0	3134	169.173186767079	96
0	3136	169.19077343614	97
0	3138	169.336371427508	98
0	3139	169.518508266601	97
0	3141	169.538862289827	96
0	3144	169.544340463824	97
0	3145	169.67903700394	96
0	3148	169.759045923498	97
0	3150	169.762024174601	98
0	3151	169.855276973112	97
0	3153	169.934782505293	96
0	3156	170.086664269892	97
0	3157	170.144034738292	96
0	3159	170.326890200868	95
0	3162	170.368567021664	96
0	3163	170.483793288608	95
0	3165	170.501010785142	94
0	3168	170.55229255716	95
0	3170	170.645108622077	96
0	3171	170.710004133287	95
0	3173	170.723752699444	94
0	3176	170.936101268572	95
0	3177	171.108844532866	94
0	3179	171.121092797244	93
0	3182	171.182289478046	94
0	3184	171.249987090226	95
0	3186	171.408915142567	96
0	3187	171.602107000669	95
0	3189	171.750129731294	94
0	3192	171.843433653317	95
0	3194	172.142144415361	96
0	3195	172.187970845029	95
0	3198	172.457424042494	96
0	3199	172.52257453563	95
0	3202	172.626081378644	96
0	3203	172.809036674773	95
0	3206	172.924305521882	96
0	3208	172.931781817731	97
0	3210	172.963674796232	98
0	3211	173.010640782889	97
0	3214	173.246027776595	98
0	3216	173.248774095591	99
0	3218	173.379721541535	100
0	3219	173.58792693601	99
0	3221	173.693729112942	98
0	3223	173.734704388358	97
0	3225	173.867818319214	96
0	3227	173.872219663661	95
0	3230	173.877870995421	96
0	3231	173.882336791246	95
0	3233	173.944412007646	94
0	3235	174.138402104967	93
0	3238	174.291088301168	94
0	3239	174.305067203486	93
0	3242	174.418308389987	94
0	3243	174.561356111488	93
0	3246	174.625742766551	94
0	3247	174.647210934318	93
0	3249	174.682386234982	92
0	3252	174.782068712079	93
0	3254	174.929860919987	94
0	3255	175.045469853676	93
0	3257	175.08757429074	92
0	3259	175.198951841689	91
0	3262	175.263336728328	92
0	3263	175.547837344624	91
0	3265	175.660903627598	90
0	3267	175.873845002804	89
0	3270	175.93805868952	90
0	3272	176.013000575597	91
0	3273	176.032615414091	90
0	3276	176.046944421575	91
0	3278	176.33663791742	92
0	3280	176.41189412811	93
0	3281	176.752964619756	92
0	3283	176.777684728943	91
0	3285	176.782653360451	90
0	3288	176.790435189877	91
0	3289	176.929562368336	90
0	3291	177.162452079898	89
0	3293	177.204018710039	88
0	3295	177.23827141103	87
0	3297	177.243884270748	86
0	3300	177.276862244865	87
0	3302	177.309124968298	88
0	3304	177.335316439677	89
0	3305	177.354889532449	88
0	3307	177.478066968614	87
0	3309	177.517840158078	86
0	3311	177.74519951992	85
0	3313	177.847556728093	84
0	3315	177.890524769357	83
0	3318	177.999680899226	84
0	3319	178.052712582651	83
0	3321	178.073158836161	82
0	3324	178.149971794956	83
0	3326	178.178354953691	84
0	3328	178.221299845838	85
0	3330	178.452633194126	86
0	3332	178.462786564276	87
0	3334	178.471980648088	88
0	3335	178.754111858708	87
0	3338	178.865721128768	88
0	3339	178.879706161515	87
0	3342	178.936699380142	88
0	3344	179.222355376292	89
0	3346	179.326000065844	90
0	3348	179.339467161104	91
0	3350	179.588158587051	92
0	3351	179.598226257366	91
0	3353	179.653797346302	90
0	3355	179.707966991424	89
0	3357	179.745195333594	88
0	3360	179.756875506607	89
0	3362	179.971056066802	90
0	3363	180.070935588614	89
0	3365	180.295351191549	88
0	3367	180.362691566655	87
0	3369	180.480408306415	86
0	3372	180.552669774346	87
0	3373	180.638465358307	86
0	3376	181.031036799778	87
0	3377	181.240350271043	86
0	3379	181.307590559483	85
0	3382	181.463192841867	86
0	3383	181.573919610915	85
0	3386	181.597738226535	86
0	3387	181.625347353898	85
0	3389	181.792281401366	84
0	3391	181.883642483662	83
0	3394	181.893097722404	84
0	3396	181.960160250987	85
0	3398	181.982120562308	86
0	3399	182.285831071368	85
0	3401	182.368577703326	84
0	3404	182.459093290957	85
0	3405	182.640191161078	84
0	3408	182.650139330765	85
0	3409	182.657324016589	84
0	3412	182.81131976561	85
0	3414	182.943439887608	86
0	3415	183.054585243072	85
0	3417	183.069595906282	84
0	3419	183.342609219322	83
0	3422	183.369482890722	84
0	3424	183.382673538969	85
0	3425	183.579574114851	84
0	3428	183.759531364835	85
0	3429	183.826341793737	84
0	3431	183.860202852799	83
0	3434	183.913945973632	84
0	3436	183.986768970744	85
0	3438	184.451594507789	86
0	3439	184.776019392498	85
0	3442	184.895429773443	86
0	3443	185.150184182643	85
0	3446	185.188537983092	86
0	3447	185.229559107422	85
0	3449	185.314351115755	84
0	3452	185.395568018761	85
0	3454	185.618228570822	86
0	3456	185.988496453952	87
0	3458	185.991773717469	88
0	3459	186.088823455237	87
0	3461	186.107646897564	86
0	3464	186.108766139967	87
0	3466	186.186332321051	88
0	3468	186.314893418008	89
0	3470	186.459518680738	90
0	3472	186.489785498254	91
0	3474	186.739365074972	92
0	3475	186.861249154474	91
0	3477	186.9103074867	90
0	3479	186.923431301171	89
0	3482	187.094317642474	90
0	3484	187.102075096735	91
0	3485	187.205909021034	90
0	3488	187.226445174733	91
0	3489	187.447935397658	90
0	3491	187.781314023262	89
0	3494	187.89240900904	90
0	3496	187.986222298935	91
0	3497	188.031522323488	90
0	3500	188.073557433846	91
0	3501	188.27882612169	90
0	3504	188.288065733205	91
0	3506	188.346287868503	92
0	3507	188.851618251621	91
0	3509	188.905368398755	90
0	3511	188.908767289715	89
0	3514	189.164456432872	90
0	3516	189.188269451158	91
0	3518	189.239956507167	92
0	3520	189.358361227604	93
0	3521	189.379015318905	92
0	3523	189.424543644221	91
0	3525	189.507308501878	90
0	3527	189.561835271545	89
0	3529	189.636757417599	88
0	3532	189.721150426718	89
0	3534	189.745531385945	90
0	3536	189.752262124212	91
0	3538	190.07030402925	92
0	3540	190.413258941452	93
0	3541	190.418405020072	92
0	3544	190.59092701905	93
0	3545	190.775074803481	92
0	3548	190.788547172005	93
0	3549	190.823612353026	92
0	3551	191.02589988457	91
0	3553	191.026268430721	90
0	3556	191.146431705355	91
0	3558	191.394046792352	92
0	3559	191.514043572664	91
0	3561	191.557655047427	90
0	3563	191.683596725261	89
0	3566	191.706052102957	90
0	3568	191.957542434491	91
0	3569	192.115709128258	90
0	3571	192.147238213038	89
0	3573	192.325832099309	88
0	3576	192.383265533716	89
0	3577	192.402400450971	88
0	3580	192.408769818687	89
0	3581	192.726250192367	88
0	3584	192.886503844399	89
0	3586	193.182737161396	90
0	3587	193.283421539198	89
0	3589	193.344942145727	88
0	3592	193.478468938175	89
0	3594	193.582187857446	90
0	3595	193.652659714585	89
0	3597	193.946565219768	88
0	3599	194.175701670362	87
0	3602	194.392144924675	88
0	3603	194.436502479764	87
0	3605	194.510779013427	86
0	3608	194.693378395479	87
0	3609	195.02833970569	86
0	3612	195.167324587661	87
0	3614	195.294144884349	88
0	3616	195.342803820641	89
0	3618	195.487370470982	90
0	3620	195.517171854602	91
0	3622	195.560303878643	92
0	3623	195.628941346533	91
0	3626	195.691490516342	92
0	3627	195.763228767653	91
0	3629	195.860310301962	90
0	3631	195.885119477101	89
0	3633	195.979440401589	88
0	3636	195.986651831529	89
0	3638	196.313478342771	90
0	3639	196.345729455724	89
0	3641	196.391767185033	88
0	3643	196.805219876488	87
0	3645	197.010357248585	86
0	3647	197.186978152794	85
0	3649	197.388109430952	84
0	3651	197.418115527734	83
0	3653	197.447396714884	82
0	3656	197.595466721211	83
0	3658	197.607790301357	84
0	3660	197.694030351028	85
0	3662	197.722903308548	86
0	3664	197.768628456064	87
0	3665	197.851447653996	86
0	3668	197.864126441088	87
0	3670	197.868195811728	88
0	3671	197.979799195386	87
0	3674	198.026510253213	88
0	3675	198.121509501961	87
0	3678	198.141008978944	88
0	3679	198.14496030841	87
0	3682	198.192998392302	88
0	3684	198.41232438617	89
0	3685	198.490932065618	88
0	3688	198.5910965839	89
0	3689	198.65039564483	88
0	3692	198.682284166513	89
0	3693	198.692436104613	88
0	3696	198.762067614149	89
0	3697	198.797823682588	88
0	3699	198.807005100638	87
0	3702	198.920424023131	88
0	3704	198.928422303861	89
0	3706	199.222174119737	90
0	3707	199.230524359017	89
0	3710	199.515171894039	90
0	3711	199.530114775664	89
0	3714	199.590952265814	90
0	3715	199.955127593529	89
0	3718	200.049133410193	90
0	3720	200.055035826262	91
0	3722	200.10968589438	92
0	3724	200.181409996033	93
0	3726	200.368520386537	94
0	3728	200.479481999851	95
0	3729	200.492558447954	94
0	3732	200.697052992329	95
0	3734	200.781205437809	96
0	3736	200.802002150177	97
0	3738	200.864834930041	98
0	3739	200.871058415685	97
0	3742	200.925372447348	98
0	3743	201.008643898764	97
0	3746	201.419354720191	98
0	3748	201.425023565944	99
0	3750	201.514479442888	100
0	3752	201.554146795323	101
0	3753	201.579534421388	100
0	3756	201.693484544603	101
0	3757	201.894772078352	100
0	3759	201.954879101555	99
0	3761	202.003666252515	98
0	3763	202.19748437751	97
0	3765	202.550437082857	96
0	3768	202.627996573021	97
0	3770	202.639734128109	98
0	3771	202.845608269123	97
0	3774	202.895141539141	98
0	3775	203.038798614307	97
0	3778	203.125859933846	98
0	3780	203.157598794255	99
0	3781	203.184368996696	98
0	3784	203.278582185604	99
0	3785	203.294243196156	98
0	3787	203.45507497152	97
0	3790	203.456761281533	98
0	3791	203.689750091191	97
0	3794	203.98596279267	98
0	3796	203.986951055607	99
0	3798	204.022600308797	100
0	3799	204.033412052678	99
0	3801	204.057045153767	98
0	3803	204.113812731936	97
0	3805	204.207439833024	96
0	3808	204.261290865381	97
0	3810	204.445363497727	98
0	3812	204.496550790942	99
0	3813	204.620474596001	98
0	3816	204.774917526313	99
0	3818	204.992366840127	100
0	3819	205.117447108585	99
0	3821	205.123559397994	98
0	3824	205.365703774383	99
0	3826	205.43920243552	100
0	3827	205.45471503555	99
0	3830	205.856201455094	100
0	3832	205.856274938627	101
0	3834	205.920242348556	102
0	3836	206.044257951601	103
0	3838	206.14859936506	104
0	3839	206.372817477111	103
0	3841	206.618739220166	102
0	3843	206.638110999446	101
0	3846	206.762532079821	102
0	3848	206.80352231876	103
0	3850	206.910793831601	104
0	3852	207.057581411339	105
0	3853	207.172235373261	104
0	3856	207.177806991062	105
0	3858	207.201169394367	106
0	3859	207.376650381119	105
0	3861	207.72957820454	104
0	3864	207.893920617116	105
0	3865	207.927819373136	104
0	3868	208.232062108481	105
0	3870	208.245845611833	106
0	3872	208.299675355781	107
0	3873	208.467179744075	106
0	3875	208.549838602443	105
0	3877	208.552248389139	104
0	3880	208.583002023484	105
0	3881	208.797283632078	104
0	3883	209.150526156854	103
0	3886	209.163778415352	104
0	3887	209.24196563224	103
0	3890	209.451835812723	104
0	3892	209.616973277039	105
0	3894	209.842224580061	106
0	3896	209.862215926947	107
0	3897	209.868444895517	106
0	3899	209.927784923979	105
0	3902	209.994911085894	106
0	3904	210.204018432524	107
0	3906	210.223508191607	108
0	3908	210.259942602445	109
0	3909	210.261682965266	108
0	3912	210.640970971983	109
0	3914	210.825132443915	110
0	3915	210.923667828245	109
0	3917	211.079969199742	108
0	3920	211.162164324929	109
0	3922	211.471881437887	110
0	3924	211.607092285988	111
0	3926	211.784668179025	112
0	3928	211.954978040903	113
0	3930	211.96512234549	114
0	3931	212.041971272265	113
0	3934	212.062443786875	114
0	3935	212.287635486741	113
0	3937	212.333452255882	112
0	3940	212.415055444723	113
0	3942	212.421720458054	114
0	3944	212.477704785877	115
0	3946	212.560533696214	116
0	3948	212.602365112536	117
0	3950	212.927250421992	118
0	3952	212.935216431451	119
0	3953	212.965471337492	118
0	3956	213.049496576981	119
0	3958	213.080607237382	120
0	3959	213.413196252441	119
0	3962	213.540428877766	120
0	3964	213.632550124124	121
0	3965	213.725598016153	120
0	3968	213.922414297852	121
0	3970	213.945624387051	122
0	3972	214.112495165406	123
0	3973	214.118776152264	122
0	3976	214.249041374765	123
0	3977	214.548996246611	122
0	3979	214.603314843832	121
0	3982	214.710913447803	122
0	3983	214.764917766673	121
0	3985	215.04328946543	120
0	3987	215.050659547222	119
0	3989	215.082275679048	118
0	3992	215.089924372618	119
0	3993	215.123123855423	118
0	3996	215.234824322692	119
0	3998	215.287423503062	120
0	4000	215.361020982497	121
0	4001	215.514338996091	120
0	4003	215.707200751504	119
0	4005	215.745524342307	118
0	4007	215.871520910571	117
0	4010	215.942678735637	118
0	4011	215.967618528185	117
0	4014	216.046222451094	118
0	4016	216.152591956133	119
0	4018	216.211537191429	120
0	4019	216.37788137879	119
0	4021	216.584135458865	118
0	4023	216.635008370595	117
0	4026	216.643445601396	118
0	4028	216.68211474605	119
0	4029	216.684078300979	118
0	4032	216.850926916555	119
0	4034	216.875487333094	120
0	4036	216.924483120506	121
0	4037	217.259945377488	120
0	4039	217.307939906127	119
0	4042	217.381343413054	120
0	4044	217.417825705316	121
0	4046	217.455742481786	122
0	4048	217.587126115514	123
0	4050	217.610361668939	124
0	4052	217.687994090071	125
0	4054	217.799226311576	126
0	4055	217.880297565788	125
0	4058	217.897539818148	126
0	4059	218.003345416806	125
0	4061	218.016822544148	124
0	4064	218.033617022761	125
0	4066	218.374831196069	126
0	4067	218.593397368668	125
0	4069	218.795657634001	124
0	4071	219.023875411593	123
0	4074	219.124154962866	124
0	4076	219.178509501794	125
0	4077	219.221799090729	124
0	4079	219.256376774965	123
0	4082	219.465544677181	124
0	4083	219.743511287244	123
0	4085	219.754159515789	122
0	4087	219.791616446716	121
0	4090	219.793652136927	122
0	4091	219.910956422385	121
0	4093	219.934370123786	120
0	4096	219.95405516995	121
0	4098	220.051045545715	122
0	4099	220.060572117796	121
0	4102	220.294124456077	122
0	4104	220.297126882053	123
0	4105	220.299096502764	122
0	4107	220.422836477691	121
0	4110	220.502893188328	122
0	4111	220.521491511829	121
0	4114	220.634181943715	122
0	4116	220.680697710955	123
0	4117	220.871604090754	122
0	4120	220.991373876718	123
0	4121	221.026861668014	122
0	4124	221.083797488504	123
0	4126	221.11999292931	124
0	4127	221.266830215885	123
0	4129	221.32324203182	122
0	4132	221.339291787275	123
0	4133	221.352271992056	122
0	4135	221.385117516593	121
0	4137	221.783125953268	120
0	4140	222.068404664668	121
0	4141	222.157795854869	120
0	4143	222.249783816211	119
0	4145	222.315008815054	118
0	4147	222.386266164105	117
0	4149	222.549779031683	116
0	4152	222.623212592402	117
0	4153	222.656759531856	116
0	4155	222.768989182903	115
0	4158	222.773682298235	116
0	4159	222.978115905955	115
0	4162	223.058647973546	116
0	4163	223.086372638696	115
0	4165	223.107024333731	114
0	4168	223.129805600514	115
0	4170	223.240031431916	116
0	4172	223.255434536748	117
0	4173	223.275867489263	116
0	4175	223.488647463699	115
0	4178	223.627618494842	116
0	4179	223.651081064219	115
0	4181	224.077749925406	114
0	4184	224.118088725455	115
0	4185	224.17810074411	114
0	4187	224.228680282876	113
0	4190	224.410502115582	114
0	4191	224.513450799672	113
0	4193	224.684619243342	112
0	4195	224.718627215624	111
0	4197	224.735761413258	110
0	4200	224.833213594431	111
0	4202	225.044376894825	112
0	4203	225.06869239398	111
0	4205	225.075384446481	110
0	4208	225.412136454451	111
0	4210	225.537188707253	112
0	4211	225.772898744826	111
0	4213	226.031804893489	110
0	4216	226.193381456918	111
0	4217	226.216811008788	110
0	4219	226.397987911134	109
0	4221	226.402265004925	108
0	4224	226.600026334088	109
0	4226	226.66518627862	110
0	4228	226.734705766694	111
0	4229	226.999971191306	110
0	4231	227.312221414461	109
0	4233	227.368637566326	108
0	4236	227.42439118691	109
0	4237	227.464329724318	108
0	4239	227.551077884561	107
0	4241	227.63929290838	106
0	4244	227.719450363692	107
0	4246	227.725204949891	108
0	4248	227.774490809728	109
0	4249	227.869691849541	108
0	4252	228.00457054478	109
0	4253	228.138063798593	108
0	4256	228.19965575547	109
0	4258	228.253222202296	110
0	4259	228.424645568019	109
0	4261	228.807178586069	108
0	4263	229.002189761981	107
0	4266	229.013327189461	108
0	4268	229.016008303665	109
0	4270	229.202422167943	110
0	4271	229.311015342771	109
0	4273	229.37913636642	108
0	4275	229.566609802586	107
0	4277	229.592349988243	106
0	4279	229.638157507119	105
0	4281	229.769045294806	104
0	4283	229.805329916599	103
0	4285	229.837066125295	102
0	4288	230.106002025148	103
0	4290	230.118050537739	104
0	4292	230.186310254762	105
0	4294	230.225428514564	106
0	4296	230.24678620903	107
0	4297	230.342873050841	106
0	4300	230.3789224604	107
0	4302	230.493360795326	108
0	4304	230.555020173492	109
0	4305	230.97965364834	108
0	4308	230.982700040357	109
0	4310	231.35469958099	110
0	4312	231.430502727167	111
0	4314	231.61355165841	112
0	4315	231.632796151866	111
0	4318	231.726038910283	112
0	4319	231.770619645022	111
0	4322	231.824776828726	112
0	4323	231.839084145553	111
0	4326	232.06406269179	112
0	4328	232.395753003761	113
0	4330	232.429524607532	114
0	4331	232.462173504939	113
0	4333	232.620018135812	112
0	4335	232.694204524628	111
0	4338	232.731582468213	112
0	4340	232.762772418957	113
0	4342	233.001109372258	114
0	4343	233.002397502341	113
0	4345	233.041622783032	112
0	4347	233.069479086195	111
0	4349	233.197438480416	110
0	4351	233.36822006249	109
0	4354	233.443986134885	110
0	4355	233.478824404733	109
0	4358	233.561608606549	110
0	4360	233.581187187691	111
0	4361	233.706125337157	110
0	4363	233.875462213802	109
0	4366	233.878061275517	110
0	4368	233.90182129323	111
0	4370	234.046605652981	112
0	4371	234.109438754398	111
0	4373	234.150553712188	110
0	4375	234.178447850822	109
0	4377	234.275347751083	108
0	4379	234.4916143273	107
0	4381	234.510532069114	106
0	4384	234.546512159986	107
0	4385	234.577215964671	106
0	4387	234.589079546481	105
0	4390	234.593556078494	106
0	4391	234.68299365946	105
0	4394	234.714643886458	106
0	4395	234.749605465568	105
0	4398	235.02813130505	106
0	4400	235.174478006669	107
0	4401	235.432159691167	106
0	4404	235.582675752503	107
0	4406	235.707286086192	108
0	4408	235.750468590129	109
0	4410	235.85706060554	110
0	4412	236.00503470249	111
0	4414	236.014126956385	112
0	4416	236.55194338525	113
0	4418	236.84395532988	114
0	4419	236.855131263333	113
0	4421	237.054892295848	112
0	4424	237.203043298356	113
0	4425	237.573231064406	112
0	4427	237.609777355616	111
0	4429	237.623117952683	110
0	4431	237.651902726941	109
0	4434	237.809939503473	110
0	4435	238.022415231387	109
0	4438	238.033054266883	110
0	4439	238.050044207432	109
0	4442	238.063430529836	110
0	4444	238.140107804993	111
0	4446	238.161890753627	112
0	4447	238.217983407452	111
0	4450	238.236060743072	112
0	4452	238.422941827144	113
0	4453	238.777917925631	112
0	4456	239.054538148247	113
0	4458	239.078464185852	114
0	4460	239.241938884478	115
0	4462	239.495240856709	116
0	4463	239.499194993116	115
0	4465	239.654392796	114
0	4467	239.65732692907	113
0	4470	239.81909531521	114
0	4471	239.845806363033	113
0	4474	240.070032854094	114
0	4476	240.344774680241	115
0	4478	240.408440179211	116
0	4480	240.417053205299	117
0	4481	240.422272562529	116
0	4483	240.50264212231	115
0	4486	240.660967778184	116
0	4488	240.852930227251	117
0	4490	241.290485844658	118
0	4491	241.348378477232	117
0	4494	241.532120060356	118
0	4496	241.609132766813	119
0	4498	241.676643508271	120
0	4499	241.894011128105	119
0	4501	242.039192669433	118
0	4503	242.104490349865	117
0	4506	242.228040597574	118
0	4507	242.229212662414	117
0	4510	242.400879888834	118
0	4512	242.454415424895	119
0	4514	242.483381740037	120
0	4515	242.812504266668	119
0	4518	242.965883056063	120
0	4520	243.007074023048	121
0	4521	243.095459159207	120
0	4524	243.303866094705	121
0	4525	243.384502374234	120
0	4528	243.457932404741	121
0	4529	243.505235518014	120
0	4532	243.705840771392	121
0	4533	243.912457082647	120
0	4536	243.944433008579	121
0	4538	243.953116749972	122
0	4540	243.978126460925	123
0	4541	244.043422197323	122
0	4544	244.074267799887	123
0	4546	244.10631063082	124
0	4547	244.35505132559	123
0	4550	244.453753630589	124
0	4551	244.478243630693	123
0	4553	244.545493455847	122
0	4556	244.647551461805	123
0	4558	244.68922240463	124
0	4560	244.880001586098	125
0	4561	245.276263498157	124
0	4564	245.457930817639	125
0	4565	245.503342947823	124
0	4568	245.550399900269	125
0	4570	245.738257480802	126
0	4572	245.76632490577	127
0	4574	245.818113482729	128
0	4575	245.93494831461	127
0	4577	246.1020348954	126
0	4579	246.163896968027	125
0	4582	246.201080660499	126
0	4583	246.478589537447	125
0	4585	246.616398905534	124
0	4588	246.738591688388	125
0	4589	246.832382218688	124
0	4592	246.912993327741	125
0	4594	246.943823209153	126
0	4595	247.026481526783	125
0	4597	247.060812922335	124
0	4600	247.229908100585	125
0	4602	247.300593557566	126
0	4604	247.352093401384	127
0	4606	247.378836633359	128
0	4608	248.044852612233	129
0	4610	248.118959248891	130
0	4612	248.237975452139	131
0	4613	248.451078314456	130
0	4615	248.505286984734	129
0	4618	248.56535902983	130
0	4620	248.909321206579	131
0	4621	249.022725660481	130
0	4623	249.062742769151	129
0	4626	249.144120384549	130
0	4627	249.37484791394	129
0	4629	249.38349632823	128
0	4632	249.446717122414	129
0	4634	249.474481979871	130
0	4636	249.475441755135	131
0	4638	249.636824147801	132
0	4639	249.842755558915	131
0	4641	250.265228960759	130
0	4643	250.288942840959	129
0	4645	250.420691345181	128
0	4648	250.423015112969	129
0	4650	250.470544248472	130
0	4651	250.613666106989	129
0	4654	250.826054202883	130
0	4656	250.89681010579	131
0	4658	251.005191998787	132
0	4659	251.034976807744	131
0	4661	251.127133571044	130
0	4663	251.353294198402	129
0	4665	251.508706302644	128
0	4668	251.522778981422	129
0	4669	251.588612608127	128
0	4672	251.714523891628	129
0	4674	251.743938700332	130
0	4675	251.842334156746	129
0	4678	251.966623987513	130
0	4680	251.972232527942	131
0	4682	252.18819373644	132
0	4684	252.29523067607	133
0	4685	252.300162890555	132
0	4687	252.317905292125	131
0	4690	252.608584496049	132
0	4691	252.739399062064	131
0	4694	252.739411259258	132
0	4695	252.763378888346	131
0	4698	252.771871638326	132
0	4699	252.91665283053	131
0	4701	252.965213556188	130
0	4703	253.036320182928	129
0	4706	253.105622695031	130
0	4708	253.196867191637	131
0	4710	253.717987704544	132
0	4712	253.730058210414	133
0	4714	253.779735090544	134
0	4715	253.932494280993	133
0	4717	253.993855090567	132
0	4719	254.052837868277	131
0	4721	254.071947239009	130
0	4723	254.138265451903	129
0	4726	254.149627233478	130
0	4727	254.197623554094	129
0	4730	254.26093815908	130
0	4732	254.360556604157	131
0	4734	254.422998858971	132
0	4736	254.428109980202	133
0	4737	254.487214140752	132
0	4740	254.491477317559	133
0	4742	254.71685165687	134
0	4744	254.759533188998	135
0	4746	255.046068104824	136
0	4747	255.569952237092	135
0	4749	255.581784382214	134
0	4751	255.617723720616	133
0	4753	255.661560238295	132
0	4755	255.719982682946	131
0	4757	255.810901468529	130
0	4760	255.840229271278	131
0	4761	255.85109785538	130
0	4764	255.908941945085	131
0	4766	255.989868090045	132
0	4768	256.009933093369	133
0	4770	256.20873051103	134
0	4771	256.272514336467	133
0	4773	256.325039110848	132
0	4775	256.439277105148	131
0	4778	256.507184380608	132
0	4780	256.507503548724	133
0	4782	256.617099049548	134
0	4783	256.625745077738	133
0	4786	256.7467718579	134
0	4787	256.805640144699	133
0	4789	257.000252835877	132
0	4792	257.040053440417	133
0	4793	257.169658518419	132
0	4795	257.172992442348	131
0	4797	257.339473050343	130
0	4799	257.418222873396	129
0	4801	257.722206273115	128
0	4804	257.811342595574	129
0	4805	257.981820740159	128
0	4807	258.09784679562	127
0	4810	258.150089285673	128
0	4812	258.201166578897	129
0	4814	258.516751559098	130
0	4815	258.530461119603	129
0	4818	258.715124540262	130
0	4820	258.782940774032	131
0	4821	258.913544987874	130
0	4823	258.973929102343	129
0	4825	258.983480128062	128
0	4828	259.076007354262	129
0	4830	259.147876067791	130
0	4831	259.405595600189	129
0	4834	259.689854106716	130
0	4835	260.15954946126	129
0	4838	260.564053756651	130
0	4840	260.564068496585	131
0	4842	260.622738809938	132
0	4843	260.627519487143	131
0	4846	260.748941280083	132
0	4848	260.773363993355	133
0	4850	260.867540589902	134
0	4851	260.878321245315	133
0	4854	261.035481656544	134
0	4856	261.039869807592	135
0	4857	261.053674570126	134
0	4859	261.12931334687	133
0	4861	261.238987028603	132
0	4864	261.334032473451	133
0	4866	261.402980810204	134
0	4867	261.403200346658	133
0	4869	261.678104540703	132
0	4871	261.686440338141	131
0	4874	261.728037445143	132
0	4875	261.802026918159	131
0	4878	261.874179140303	132
0	4880	261.910197290039	133
0	4882	261.939533903137	134
0	4883	261.960067539954	133
0	4886	261.97593451225	134
0	4887	262.106744153189	133
0	4889	262.190608638293	132
0	4892	262.211826082652	133
0	4894	262.242748661023	134
0	4896	262.64884629486	135
0	4897	262.75592392102	134
0	4900	262.819974965364	135
0	4901	262.897427029194	134
0	4904	263.151293339872	135
0	4905	263.276779539578	134
0	4907	263.545580022038	133
0	4910	263.552794336912	134
0	4912	263.653435522657	135
0	4914	263.705862985925	136
0	4916	263.790184986721	137
0	4917	263.836161233006	136
0	4919	263.907534479384	135
0	4921	263.945607436327	134
0	4923	264.042536992035	133
0	4925	264.104654091858	132
0	4927	264.165272433014	131
0	4929	264.357772432948	130
0	4932	264.382631933752	131
0	4933	264.549288433196	130
0	4935	264.760913116904	129
0	4938	264.770476866702	130
0	4939	265.029518163772	129
0	4941	265.11594014363	128
0	4944	265.24448532731	129
0	4945	265.254714415706	128
0	4947	265.32905821795	127
0	4950	265.433058341601	128
0	4951	265.589375770266	127
0	4953	265.733917576882	126
0	4955	265.859382695644	125
0	4958	266.168632306211	126
0	4960	266.288155952009	127
0	4961	266.308653457273	126
0	4963	266.367523615912	125
0	4966	266.394423245878	126
0	4967	266.401467988659	125
0	4969	266.416269633804	124
0	4972	266.481986140249	125
0	4973	266.537492765354	124
0	4976	266.624155751168	125
0	4977	266.626838885019	124
0	4980	266.664702518187	125
0	4982	266.729250425412	126
0	4983	266.856649879777	125
0	4986	266.94955400579	126
0	4988	267.002028083931	127
0	4990	267.080910547753	128
0	4992	267.180676435911	129
0	4994	267.186618013132	130
0	4995	267.234445236359	129
0	4997	267.270508892061	128
0	5000	267.300788072237	129
0	5002	267.405983202154	130
0	5004	267.64373919322	131
0	5006	267.756828326586	132
0	5007	267.796075585432	131
0	5009	267.846202939122	130
0	5011	268.02955852733	129
0	5013	268.053232058484	128
0	5016	268.261300121092	129
0	5017	268.326533767554	128
0	5020	268.40265595402	129
0	5021	268.597410554756	128
0	5023	268.651304980708	127
0	5025	268.768179058441	126
0	5027	268.795037134472	125
0	5029	268.847620771399	124
0	5031	268.98925866603	123
0	5033	269.102317668588	122
0	5035	269.177358806377	121
0	5038	269.211156264634	122
0	5040	269.211193610896	123
0	5042	269.366297996198	124
0	5044	269.500896869593	125
0	5046	269.56222166987	126
0	5047	269.704719418195	125
0	5050	269.716819309019	126
0	5052	269.941038313267	127
0	5054	270.01898816486	128
0	5056	270.023634979572	129
0	5057	270.040235864742	128
0	5060	270.118339122569	129
0	5061	270.452448972262	128
0	5063	270.627702027161	127
0	5065	270.689188027537	126
0	5068	270.920312788441	127
0	5069	271.060256834391	126
0	5071	271.061060675963	125
0	5073	271.114193082983	124
0	5075	271.117930669827	123
0	5077	271.387082195925	122
0	5079	271.583384033204	121
0	5082	271.622271929747	122
0	5084	271.681588916252	123
0	5086	271.95179281471	124
0	5088	271.990377491293	125
0	5090	272.118096275476	126
0	5092	272.286516672026	127
0	5094	272.597730199148	128
0	5095	272.849866996585	127
0	5098	272.952352972942	128
0	5100	273.172526596711	129
0	5101	273.292921269649	128
0	5103	273.353083030523	127
0	5106	273.371780968645	128
0	5107	273.395430172839	127
0	5109	273.753153540183	126
0	5111	273.769861417277	125
0	5113	273.779089267608	124
0	5116	273.998272490836	125
0	5118	274.026017209283	126
0	5119	274.091719242616	125
0	5122	274.181194025051	126
0	5124	274.370637265792	127
0	5126	274.627835214917	128
0	5128	274.69602556224	129
0	5129	275.054623801695	128
0	5131	275.080781502411	127
0	5134	275.088587263937	128
0	5136	275.092471144432	129
0	5138	275.194618230327	130
0	5140	275.200666683049	131
0	5142	275.225486063274	132
0	5144	275.267982565401	133
0	5146	275.579672887982	134
0	5148	275.707476692404	135
0	5149	275.896810152793	134
0	5152	276.07118661448	135
0	5154	276.247106551273	136
0	5155	276.926929780699	135
0	5158	276.931798830224	136
0	5160	276.945804268967	137
0	5162	276.991785027573	138
0	5164	277.204586843095	139
0	5166	277.356816167657	140
0	5168	277.380980541781	141
0	5170	277.402513560046	142
0	5171	277.515845376408	141
0	5173	277.61145111838	140
0	5176	277.685399101302	141
0	5177	277.748396772753	140
0	5180	277.874009861113	141
0	5181	277.9520712298	140
0	5184	277.971505902234	141
0	5185	278.027811562837	140
0	5187	278.369700741724	139
0	5189	278.452218000077	138
0	5192	278.603202272824	139
0	5193	278.763449401226	138
0	5196	278.77463410461	139
0	5197	278.882829904715	138
0	5199	278.938274388601	137
0	5201	279.103483361683	136
0	5203	279.285029858171	135
0	5206	279.382846216798	136
0	5208	279.393166161247	137
0	5209	279.462770648482	136
0	5211	279.47568878059	135
0	5214	279.502425682858	136
0	5215	279.541034545991	135
0	5218	279.56454102214	136
0	5220	279.685012821892	137
0	5222	279.801114326796	138
0	5224	279.803242759494	139
0	5225	279.806558104317	138
0	5227	279.829176985081	137
0	5229	280.188962934532	136
0	5231	280.236107935249	135
0	5233	280.26309402381	134
0	5235	280.370102324613	133
0	5237	280.379391923953	132
0	5239	280.397706035472	131
0	5242	280.473312904932	132
0	5243	280.480805189152	131
0	5245	281.073658917575	130
0	5248	281.078183764249	131
0	5250	281.132337759247	132
0	5252	281.147229006912	133
0	5254	281.179350468966	134
0	5256	281.523274305527	135
0	5257	281.604376703531	134
0	5259	281.650756856349	133
0	5261	281.747534483957	132
0	5263	281.778948822922	131
0	5266	282.054208952983	132
0	5268	282.141443116103	133
0	5270	282.63695205766	134
0	5272	282.857948088223	135
0	5273	282.862441857539	134
0	5276	282.872994962878	135
0	5277	283.060885446449	134
0	5279	283.132012772773	133
0	5281	283.170156033269	132
0	5283	283.318822249779	131
0	5286	283.527660146984	132
0	5287	283.56252467434	131
0	5289	283.723154386835	130
0	5291	283.831023910313	129
0	5293	283.96833962158	128
0	5296	284.209943155662	129
0	5297	284.223663318177	128
0	5300	284.387183367915	129
0	5301	284.524867343059	128
0	5304	284.589407822807	129
0	5306	284.74547298714	130
0	5307	284.950675209776	129
0	5310	285.386366947115	130
0	5312	285.431247187347	131
0	5313	285.488875501315	130
0	5315	285.542234599794	129
0	5317	285.67333181652	128
0	5320	285.802302548028	129
0	5321	286.03928216694	128
0	5324	286.091030779268	129
0	5326	286.247560476353	130
0	5327	286.287860362607	129
0	5329	286.447760689232	128
0	5332	286.48997312521	129
0	5334	286.501047994753	130
0	5336	286.605314957256	131
0	5337	286.800998152272	130
0	5340	287.265190570724	131
0	5341	287.323845510032	130
0	5343	287.424586025294	129
0	5345	287.467286504819	128
0	5348	287.516987425585	129
0	5349	287.601176159215	128
0	5352	287.689398347308	129
0	5354	287.728183669123	130
0	5356	288.034252825344	131
0	5357	288.34451935638	130
0	5359	288.544416412302	129
0	5361	288.690715428999	128
0	5364	288.740302722477	129
0	5365	288.821171321566	128
0	5368	289.084079922277	129
0	5370	289.332741602647	130
0	5372	289.45467665185	131
0	5373	289.481716717911	130
0	5375	289.504720356977	129
0	5377	289.745808998853	128
0	5380	289.777625762138	129
0	5381	289.973392713494	128
0	5384	290.034293347038	129
0	5385	290.308786490466	128
0	5387	290.433504607853	127
0	5389	290.439425933197	126
0	5392	290.497960691358	127
0	5393	290.554190021783	126
0	5395	290.806474089366	125
0	5397	290.904761120214	124
0	5399	290.909975213119	123
0	5402	291.154869554532	124
0	5404	291.218048108032	125
0	5406	291.277591440674	126
0	5407	291.286074941378	125
0	5409	291.295725855177	124
0	5411	291.476974216702	123
0	5414	292.061592802015	124
0	5415	292.094155551116	123
0	5418	292.165485720569	124
0	5420	292.324259060468	125
0	5422	292.553605341287	126
0	5423	292.663118571476	125
0	5425	292.760632990827	124
0	5428	292.88127813528	125
0	5430	292.991055470443	126
0	5431	293.127922300566	125
0	5433	293.223412378658	124
0	5436	293.23108046698	125
0	5438	293.339644344661	126
0	5439	293.520359769693	125
0	5441	293.731169896212	124
0	5444	293.822851628764	125
0	5445	293.962245077011	124
0	5448	294.016811852107	125
0	5450	294.26189935634	126
0	5452	294.280974647528	127
0	5453	295.016320290152	126
0	5455	295.070734445061	125
0	5458	295.073421202316	126
0	5459	295.163848257033	125
0	5461	295.395979074558	124
0	5463	295.422493405666	123
0	5465	295.565838571377	122
0	5468	295.638243454083	123
0	5469	295.737749761381	122
0	5472	295.76702867151	123
0	5474	295.790962993899	124
0	5475	296.019498622853	123
0	5477	296.47275673546	122
0	5479	296.678098464608	121
0	5482	296.721275151819	122
0	5483	296.814415478427	121
0	5486	296.869434353819	122
0	5487	296.93598925548	121
0	5490	296.936939010366	122
0	5491	296.978593969526	121
0	5493	297.013969139883	120
0	5495	297.12583257204	119
0	5498	297.188984247139	120
0	5500	297.242442497402	121
0	5501	297.278561562162	120
0	5503	297.282289618584	119
0	5505	297.30550431552	118
0	5508	297.324683542908	119
0	5510	297.346435299944	120
0	5511	297.394255603661	119
0	5514	297.691621138045	120
0	5516	297.712304711148	121
0	5518	297.803483061092	122
0	5519	297.829794365189	121
0	5521	297.941600187194	120
0	5523	297.970711978437	119
0	5525	298.102251848083	118
0	5527	298.161949652352	117
0	5530	298.249796219595	118
0	5532	298.499118797343	119
0	5534	298.833460735958	120
0	5536	298.912740803554	121
0	5538	298.972792654369	122
0	5539	299.038790112186	121
0	5542	299.0843276792	122
0	5543	299.289352297631	121
0	5545	299.305273927374	120
0	5547	299.349397348342	119
0	5549	299.434147396167	118
0	5552	299.617318447892	119
0	5554	299.675261337886	120
0	5555	299.72803023796	119
0	5557	300.035598278553	118
0	5559	300.078714532308	117
0	5562	300.093858938848	118
0	5564	300.20251368898	119
0	5565	300.387148029011	118
0	5567	300.472170180962	117
0	5569	300.632671468922	116
0	5571	300.708536209969	115
0	5573	301.024879959371	114
0	5576	301.290960317423	115
0	5578	301.354822306878	116
0	5580	301.450617575974	117
0	5581	301.519087945625	116
0	5584	301.580855870896	117
0	5585	301.631867194675	116
0	5588	301.683069220037	117
0	5590	301.735916960815	118
0	5592	301.863389629731	119
0	5594	301.997900417673	120
0	5596	302.001246402927	121
0	5598	302.053450170873	122
0	5600	302.180917820921	123
0	5602	302.250488823779	124
0	5604	302.343511078117	125
0	5605	302.852183148027	124
0	5608	302.921692460216	125
0	5609	302.929658943573	124
0	5611	302.999655583959	123
0	5614	303.067132021555	124
0	5616	303.09342265105	125
0	5617	303.164814880302	124
0	5620	303.218329924658	125
0	5622	303.385476554988	126
0	5624	303.59209908285	127
0	5625	303.644922400034	126
0	5628	303.657778615629	127
0	5629	303.743725611299	126
0	5632	303.753915290173	127
0	5633	303.81975317064	126
0	5635	303.920962852327	125
0	5638	303.922040501873	126
0	5639	304.181789189986	125
0	5641	304.216503633132	124
0	5644	304.255644047634	125
0	5646	304.53317765678	126
0	5648	304.601066439908	127
0	5650	304.737694569884	128
0	5651	304.774448937005	127
0	5654	304.778905549288	128
0	5655	304.832870465763	127
0	5657	304.958802762782	126
0	5659	305.125285166501	125
0	5662	305.247987839604	126
0	5664	305.397544105512	127
0	5665	305.568037491126	126
0	5667	305.714214389165	125
0	5670	305.833057709496	126
0	5672	305.839480844498	127
0	5674	306.007540879793	128
0	5676	306.195432927888	129
0	5677	306.300729024606	128
0	5679	306.321123156889	127
0	5681	306.323709350572	126
0	5683	306.41568665093	125
0	5685	306.582308886711	124
0	5687	306.792842515859	123
0	5689	306.843252916563	122
0	5692	306.847243086067	123
0	5693	306.87535598738	122
0	5696	306.936604908864	123
0	5697	307.167568102476	122
0	5700	307.232817491014	123
0	5702	307.254046118938	124
0	5703	307.34558989334	123
0	5706	307.358540218162	124
0	5708	307.364635147263	125
0	5710	307.387873416951	126
0	5711	307.412497380227	125
0	5713	307.465804298444	124
0	5716	307.628145439472	125
0	5718	307.693130324983	126
0	5719	307.70967201568	125
0	5721	307.821479363021	124
0	5723	307.964862068144	123
0	5726	308.348642815671	124
0	5727	308.388167632264	123
0	5729	308.454075916831	122
0	5732	308.46556163148	123
0	5734	308.531573764771	124
0	5736	308.657859932541	125
0	5737	308.837354330249	124
0	5739	308.838569979794	123
0	5742	309.007440961267	124
0	5744	309.061951323859	125
0	5746	309.069099013379	126
0	5747	309.160651186471	125
0	5749	309.466546108299	124
0	5752	309.612254084886	125
0	5753	309.630069248208	124
0	5756	309.701156065056	125
0	5757	309.792724217241	124
0	5759	309.908667217395	123
0	5762	309.968733526914	124
0	5763	310.327174184198	123
0	5765	310.34955104771	122
0	5768	310.408739897089	123
0	5770	310.871097163067	124
0	5771	311.058795089798	123
0	5773	311.131769581108	122
0	5775	311.265125992232	121
0	5777	311.391566468348	120
0	5780	311.660677359411	121
0	5781	311.973518151492	120
0	5783	312.009257147378	119
0	5785	312.239078403255	118
0	5788	312.250295682219	119
0	5790	312.504230630963	120
0	5791	312.547692452904	119
0	5794	312.668231623885	120
0	5795	312.698137726974	119
0	5797	312.708665612846	118
0	5800	312.852774362924	119
0	5802	312.886106593781	120
0	5803	313.048185218123	119
0	5806	313.223146596506	120
0	5808	313.298259581752	121
0	5810	313.358403997592	122
0	5812	313.378959923898	123
0	5814	313.511612878183	124
0	5816	313.542855136264	125
0	5817	313.715373603153	124
0	5820	313.829761528574	125
0	5821	313.867276081754	124
0	5823	314.06294439145	123
0	5826	314.173078532232	124
0	5827	314.195328097762	123
0	5830	314.204644366192	124
0	5831	314.529600967009	123
0	5834	314.624766572456	124
0	5836	314.666322037273	125
0	5837	314.769318945052	124
0	5840	314.918468998811	125
0	5841	314.925995474183	124
0	5843	315.135516187294	123
0	5845	315.512904288708	122
0	5847	315.673398013994	121
0	5850	315.689187147059	122
0	5851	315.712014636245	121
0	5853	315.742297072937	120
0	5856	315.812645516461	121
0	5858	315.887794611588	122
0	5860	316.081191499734	123
0	5862	316.144467222394	124
0	5864	316.165283035618	125
0	5866	316.203243779492	126
0	5868	316.36700709068	127
0	5869	316.491030112337	126
0	5872	316.510168750173	127
0	5874	316.619000142944	128
0	5876	316.641808385447	129
0	5878	316.694319382599	130
0	5879	316.762537001733	129
0	5881	317.012725786284	128
0	5883	317.211659397153	127
0	5885	317.264249470405	126
0	5888	317.275895478049	127
0	5889	317.312543462779	126
0	5891	317.430517003052	125
0	5893	317.440248650873	124
0	5896	317.513129198483	125
0	5898	317.538953705357	126
0	5900	318.095819106404	127
0	5901	318.142959844519	126
0	5904	318.223423699414	127
0	5906	318.226964611352	128
0	5908	318.266852705224	129
0	5909	318.282725439446	128
0	5912	318.328720238621	129
0	5914	318.382444471025	130
0	5915	318.492383466865	129
0	5918	318.666359668348	130
0	5919	318.932270603658	129
0	5921	318.97159244296	128
0	5923	319.071067103567	127
0	5925	319.114118858411	126
0	5927	319.132550932786	125
0	5930	319.287139155318	126
0	5932	319.439066243968	127
0	5934	319.466317399212	128
0	5935	319.484597712861	127
0	5937	319.629898482524	126
0	5940	319.643044896965	127
0	5941	319.678895422613	126
[...]
4	66690	3465.149118008559	16003
4	66692	3465.192618055579	16004
4	66696	3465.321640510405	16005
4	66700	3465.554877170242	16006
4	66708	3465.897353696128	16007
4	66714	3466.021233136444	16008
4	66718	3466.141873851544	16009
4	66720	3466.280836511629	16010
4	66722	3466.400194810595	16011
4	66724	3466.624250743157	16012
4	66730	3467.005415660949	16013
4	66734	3467.081447740249	16014
4	66738	3467.156702193455	16015
4	66746	3467.511870537369	16016
4	66748	3467.572841665509	16017
4	66754	3467.909268975997	16018
4	66756	3468.019820717958	16019
4	66758	3468.053920327315	16020
4	66762	3468.23678048191	16021
4	66766	3468.315531662691	16022
4	66770	3468.6198587013	16023
4	66780	3469.366649653541	16024
4	66782	3469.388001376916	16025
4	66784	3469.65896510179	16026
4	66794	3470.162775550056	16027
4	66804	3470.770798407271	16028
4	66808	3470.863400338456	16029
4	66810	3470.903567563055	16030
4	66812	3471.098961714084	16031
4	66814	3471.111528169093	16032
4	66824	3471.511260161058	16033
4	66826	3471.578720610685	16034
4	66828	3471.587811930803	16035
4	66832	3471.697497339678	16036
4	66834	3471.707896825429	16037
4	66836	3471.812629385131	16038
4	66844	3472.272793112875	16039
4	66846	3472.939031110452	16040
4	66852	3473.027569351027	16041
4	66856	3473.444075934042	16042
4	66864	3473.931354660391	16043
4	66868	3474.074216034094	16044
4	66872	3474.22143211229	16045
4	66880	3474.396862806422	16046
4	66882	3474.428480209285	16047
4	66884	3474.430645873581	16048
4	66888	3474.63973042027	16049
4	66894	3474.830299104619	16050
4	66896	3474.847356657739	16051
4	66906	3475.606928768617	16052
4	66908	3475.63907402116	16053
4	66918	3475.829414502164	16054
4	66924	3475.879674471967	16055
4	66942	3476.843506693922	16056
4	66946	3477.067193484689	16057
4	66952	3477.47230523818	16058
4	66954	3477.599310729836	16059
4	66956	3477.716728565431	16060
4	66960	3477.766257388805	16061
4	66962	3477.900418009273	16062
4	66964	3478.125927997755	16063
4	66968	3478.329767124238	16064
4	66974	3478.993076402147	16065
4	66978	3479.132539443734	16066
4	66984	3479.62001951747	16067
4	66988	3479.808145024912	16068
4	66992	3479.906878733396	16069
4	67000	3480.274077415062	16070
4	67002	3480.409804007957	16071
4	67004	3480.469956857933	16072
4	67008	3480.712735235182	16073
4	67014	3480.961473310348	16074
4	67022	3482.21967567578	16075
4	67048	3483.34508226149	16076
4	67050	3483.419041630122	16077
4	67052	3483.489391902361	16078
4	67054	3483.501388451341	16079
4	67056	3483.553921021128	16080
4	67060	3483.838869013832	16081
4	67062	3483.843986112328	16082
4	67068	3484.417907162427	16083
4	67082	3485.506558927388	16084
4	67084	3485.590318028816	16085
4	67086	3485.692078767206	16086
4	67092	3485.846869392754	16087
4	67096	3485.868852227133	16088
4	67100	3486.279350067682	16089
4	67104	3486.557183644807	16090
4	67106	3486.641339777073	16091
4	67108	3486.672523239496	16092
4	67114	3486.960848565564	16093
4	67126	3487.647505587244	16094
4	67134	3488.184115448802	16095
4	67136	3488.202597779168	16096
4	67138	3488.212822366137	16097
4	67144	3488.547696224033	16098
4	67146	3488.734921878979	16099
4	67148	3488.789143940971	16100
4	67150	3488.945965403083	16101
4	67156	3489.122981586092	16102
4	67164	3489.378536762005	16103
4	67166	3489.413756740794	16104
4	67168	3489.47042515881	16105
4	67172	3489.496484530613	16106
4	67180	3490.308842326925	16107
4	67182	3490.392727544586	16108
4	67184	3490.568648808388	16109
4	67188	3490.588034834403	16110
4	67190	3490.614021991331	16111
4	67198	3491.165423915386	16112
4	67202	3491.344775005995	16113
4	67206	3491.475927782254	16114
4	67216	3492.080181477151	16115
4	67220	3492.136810442529	16116
4	67222	3492.1999070319	16117
4	67224	3492.347905154821	16118
4	67228	3492.652746196262	16119
4	67230	3492.760005836231	16120
4	67232	3492.79969208406	16121
4	67236	3493.07837337795	16122
4	67240	3493.206386757106	16123
4	67242	3493.218903435979	16124
4	67244	3493.436177164796	16125
4	67246	3493.539119968456	16126
4	67248	3493.556425846368	16127
4	67252	3493.79645203982	16128
4	67254	3493.806225635224	16129
4	67260	3494.469329816728	16130
4	67262	3494.511970239682	16131
4	67266	3494.666546503724	16132
4	67268	3494.693621118486	16133
4	67276	3495.073766727075	16134
4	67278	3495.121304638789	16135
4	67280	3495.1511568468	16136
4	67288	3495.385703449893	16137
4	67290	3495.40718345509	16138
4	67292	3495.485893764839	16139
4	67294	3495.487307293431	16140
4	67296	3495.498364788281	16141
4	67298	3495.622424586273	16142
4	67300	3495.821071315133	16143
4	67302	3495.91357154418	16144
4	67304	3495.994556208168	16145
4	67310	3496.286507514279	16146
4	67324	3496.884365455833	16147
4	67326	3496.964852470461	16148
4	67336	3497.309018128504	16149
4	67338	3497.372429976245	16150
4	67344	3497.863450321743	16151
4	67346	3497.870359641802	16152
4	67348	3497.908698740767	16153
4	67350	3497.935190504935	16154
4	67352	3497.948813488414	16155
4	67356	3498.204152363855	16156
4	67362	3498.240534044255	16157
4	67364	3498.255877971064	16158
4	67368	3498.416020057405	16159
4	67378	3499.178858093404	16160
4	67392	3499.834908821171	16161
4	67394	3500.001107291556	16162
4	67410	3500.965694478371	16163
4	67412	3501.129557072361	16164
4	67414	3501.356941601855	16165
4	67418	3501.579941066793	16166
4	67432	3502.550499592893	16167
4	67446	3504.017075468053	16168
4	67448	3504.12082439487	16169
4	67452	3504.418927984242	16170
4	67456	3504.484602312073	16171
4	67458	3504.64565311069	16172
4	67460	3504.723091839908	16173
4	67462	3504.743616257285	16174
4	67470	3505.26411845037	16175
4	67472	3505.340592610498	16176
4	67478	3505.460611108969	16177
4	67486	3506.033255062094	16178
4	67490	3506.206196559851	16179
4	67494	3506.243838193367	16180
4	67502	3507.013830546336	16181
4	67504	3507.058947273738	16182
4	67508	3507.098398033443	16183
4	67510	3507.210245513907	16184
4	67512	3507.420851546904	16185
4	67518	3508.002429540619	16186
4	67520	3508.030939436374	16187
4	67522	3508.174496474719	16188
4	67524	3508.255542240418	16189
4	67528	3508.876089429988	16190
4	67530	3509.01491355371	16191
4	67532	3509.019889267291	16192
4	67540	3509.74720068301	16193
4	67548	3510.533118360444	16194
4	67550	3510.689522134583	16195
4	67554	3510.816610084263	16196
4	67556	3511.00847122328	16197
4	67560	3511.186727200673	16198
4	67564	3511.201961483726	16199
4	67566	3511.738619131525	16200
4	67568	3511.760474240661	16201
4	67570	3511.995827150026	16202
4	67574	3512.1095978305	16203
4	67578	3512.273963697705	16204
4	67582	3512.443234032037	16205
4	67584	3512.473658297307	16206
4	67586	3512.547261535924	16207
4	67588	3512.614403364697	16208
4	67596	3513.252662896722	16209
4	67598	3513.276399438362	16210
4	67600	3513.570557195834	16211
4	67602	3513.588546791771	16212
4	67606	3513.66429036589	16213
4	67612	3513.817529582292	16214
4	67614	3513.853622421093	16215
4	67616	3513.925891228743	16216
4	67622	3514.144080263817	16217
4	67624	3514.231776037423	16218
4	67628	3514.372466279251	16219
4	67630	3514.474058921905	16220
4	67632	3514.496353234644	16221
4	67634	3514.560979808506	16222
4	67642	3514.724381424089	16223
4	67644	3514.786038978148	16224
4	67646	3514.917135104393	16225
4	67656	3515.564395975667	16226
4	67660	3515.751649769976	16227
4	67662	3515.752045189864	16228
4	67666	3515.999746823928	16229
4	67668	3516.184331495972	16230
4	67670	3516.262615200477	16231
4	67672	3516.448556034045	16232
4	67678	3516.780341403137	16233
4	67680	3516.855855454937	16234
4	67684	3517.616131969969	16235
4	67688	3518.101536269381	16236
4	67692	3518.251307332475	16237
4	67694	3518.365238049618	16238
4	67696	3518.444808462287	16239
4	67698	3518.540312708543	16240
4	67702	3518.75709825839	16241
4	67704	3519.167786076585	16242
4	67712	3519.889808048036	16243
4	67714	3520.193921402124	16244
4	67718	3520.355599999906	16245
4	67720	3520.382152154896	16246
4	67722	3520.461786597331	16247
4	67724	3520.484312163443	16248
4	67726	3520.587671301293	16249
4	67736	3521.406351118851	16250
4	67740	3521.459513573795	16251
4	67746	3521.803394840068	16252
4	67748	3521.833076037298	16253
4	67752	3521.85632286541	16254
4	67754	3521.91371233333	16255
4	67758	3522.085051426963	16256
4	67762	3522.242436455837	16257
4	67772	3522.524519109076	16258
4	67778	3522.885320919903	16259
4	67782	3522.921452953898	16260
4	67786	3523.281420738518	16261
4	67788	3523.445802531979	16262
4	67806	3524.436716611249	16263
4	67810	3524.907360996705	16264
4	67812	3524.928256487562	16265
4	67814	3524.978891571742	16266
4	67816	3525.14313033783	16267
4	67820	3525.316484056019	16268
4	67822	3525.373372933398	16269
4	67826	3525.923791928989	16270
4	67842	3527.340327547247	16271
4	67846	3527.800595692349	16272
4	67852	3527.911046465015	16273
4	67856	3528.396253551135	16274
4	67858	3528.444228274568	16275
4	67860	3528.574452413629	16276
4	67862	3528.582550808124	16277
4	67864	3528.634138080663	16278
4	67870	3529.064023305092	16279
4	67872	3529.243543697775	16280
4	67878	3529.456047155979	16281
4	67892	3530.179013640647	16282
4	67894	3530.188054501372	16283
4	67896	3530.293864685427	16284
4	67900	3530.404932321225	16285
4	67910	3531.00447429831	16286
4	67914	3531.142523901036	16287
4	67922	3531.790827443031	16288
4	67924	3531.807000243387	16289
4	67926	3531.817620045392	16290
4	67930	3531.904795555013	16291
4	67932	3531.96643069701	16292
4	67934	3531.986847802147	16293
4	67940	3532.402421095976	16294
4	67948	3532.502099030956	16295
4	67962	3533.452084227771	16296
4	67964	3533.495375291787	16297
4	67968	3533.631843218982	16298
4	67972	3533.701647036201	16299
4	67976	3533.813120055873	16300
4	67978	3533.870243594994	16301
4	67988	3534.579763149803	16302
4	67994	3535.343037236823	16303
4	67996	3535.472578118713	16304
4	67998	3535.560635117187	16305
4	68000	3535.584981721903	16306
4	68008	3535.886771920975	16307
4	68010	3535.966314415096	16308
4	68012	3536.099636266554	16309
4	68014	3536.127818877104	16310
4	68016	3536.165104408878	16311
4	68018	3536.369207255362	16312
4	68024	3537.364803021381	16313
4	68030	3537.538053610115	16314
4	68032	3537.559446153153	16315
4	68034	3537.637348546351	16316
4	68036	3537.689645089812	16317
4	68038	3537.739756930577	16318
4	68040	3537.774678930239	16319
4	68042	3537.909526494062	16320
4	68044	3537.963579676267	16321
4	68048	3538.197754066342	16322
4	68052	3538.234341269799	16323
4	68054	3538.501264482342	16324
4	68062	3538.638759850181	16325
4	68066	3538.694053470384	16326
4	68068	3538.783176940032	16327
4	68070	3538.905012511209	16328
4	68074	3539.079425198039	16329
4	68076	3539.11613408283	16330
4	68078	3539.118748322444	16331
4	68080	3539.243246924346	16332
4	68084	3539.820696206775	16333
4	68088	3540.020754351676	16334
4	68092	3540.243010393202	16335
4	68096	3540.466246226595	16336
4	68098	3540.606190441238	16337
4	68100	3540.612555269738	16338
4	68102	3540.752879888462	16339
4	68106	3540.782048732596	16340
4	68114	3541.221980443867	16341
4	68132	3542.037392823888	16342
4	68148	3542.836483678887	16343
4	68156	3543.186325821013	16344
4	68158	3543.487136106998	16345
4	68160	3543.621782779777	16346
4	68164	3543.888015973515	16347
4	68166	3544.206646842323	16348
4	68176	3544.864142528091	16349
4	68178	3544.956191665886	16350
4	68182	3545.061016288519	16351
4	68184	3545.143101381283	16352
4	68186	3545.257985352465	16353
4	68192	3545.722057637639	16354
4	68194	3545.827735143037	16355
4	68198	3546.075701100627	16356
4	68200	3546.099278611462	16357
4	68204	3546.192363901286	16358
4	68208	3546.237732845422	16359
4	68216	3546.507438876448	16360
4	68218	3546.581270999482	16361
4	68222	3546.741339257885	16362
4	68224	3546.766541732842	16363
4	68228	3547.456511711395	16364
4	68232	3547.751436294252	16365
4	68234	3547.803200777105	16366
4	68238	3547.921066787409	16367
4	68240	3548.00791023976	16368
4	68244	3548.316500226354	16369
4	68246	3548.342817214353	16370
4	68250	3548.355973286482	16371
4	68254	3548.51571114325	16372
4	68256	3548.544048424546	16373
4	68260	3548.676475529788	16374
4	68262	3548.868901618634	16375
4	68264	3548.951996153519	16376
4	68266	3549.059266818447	16377
4	68272	3549.27513667602	16378
4	68274	3549.29753431123	16379
4	68278	3549.489741768945	16380
4	68280	3549.511663591434	16381
4	68282	3549.576066679618	16382
4	68284	3549.640422799729	16383
4	68288	3549.742604001549	16384
4	68294	3550.102244094916	16385
4	68300	3550.698772983437	16386
4	68304	3551.038192711535	16387
4	68308	3551.251461966015	16388
4	68320	3551.993550523251	16389
4	68326	3552.109522151462	16390
4	68328	3552.120150059438	16391
4	68330	3552.205364112301	16392
4	68332	3552.30426744022	16393
4	68336	3552.356975477392	16394
4	68340	3552.72880132026	16395
4	68342	3552.869739078474	16396
4	68350	3553.431246061033	16397
4	68352	3553.470939219501	16398
4	68354	3553.724553425531	16399
4	68356	3553.860174694388	16400
4	68362	3554.019950096993	16401
4	68366	3554.144653606403	16402
4	68370	3554.697794466663	16403
4	68374	3554.904187418242	16404
4	68376	3555.04438923348	16405
4	68380	3555.142828502211	16406
4	68382	3555.233570539997	16407
4	68390	3555.583930003151	16408
4	68394	3555.63695294791	16409
4	68402	3556.582299215736	16410
4	68404	3556.589794951109	16411
4	68406	3556.68600838172	16412
4	68408	3556.723836138651	16413
4	68412	3557.221793501917	16414
4	68416	3557.473066438114	16415
4	68418	3557.565012452097	16416
4	68424	3558.042534407038	16417
4	68436	3559.755075276037	16418
4	68438	3560.093451029438	16419
4	68446	3560.317952701971	16420
4	68452	3560.40448449645	16421
4	68454	3560.448131763978	16422
4	68456	3560.694706216383	16423
4	68460	3560.879283880655	16424
4	68464	3561.129386038106	16425
4	68466	3561.133105708119	16426
4	68468	3561.188893064436	16427
4	68470	3561.201180889715	16428
4	68482	3561.921723460793	16429
4	68484	3561.926072039427	16430
4	68488	3562.173608250955	16431
4	68492	3562.536091709722	16432
4	68494	3562.581149597144	16433
4	68498	3562.68415405093	16434
4	68500	3562.807966810352	16435
4	68506	3562.949916304678	16436
4	68508	3563.004701647598	16437
4	68510	3563.282372828616	16438
4	68516	3563.415461805692	16439
4	68522	3563.609207435794	16440
4	68524	3563.745387628698	16441
4	68530	3563.867117329826	16442
4	68532	3564.274291932114	16443
4	68542	3564.608200200133	16444
4	68544	3564.673251891174	16445
4	68546	3564.722321403736	16446
4	68558	3565.700863497727	16447
4	68570	3566.611464888434	16448
4	68572	3566.854402557236	16449
4	68574	3567.013472524409	16450
4	68576	3567.061786633791	16451
4	68578	3567.151738247545	16452
4	68584	3567.60509418937	16453
4	68586	3567.606985952218	16454
4	68588	3567.644317891527	16455
4	68602	3568.24265806886	16456
4	68604	3568.245746350494	16457
4	68606	3568.26234840822	16458
4	68608	3568.749389035628	16459
4	68610	3568.776252521467	16460
4	68612	3568.843618267341	16461
4	68618	3569.178416273619	16462
4	68622	3569.46616184614	16463
4	68624	3569.545272413002	16464
4	68628	3569.639638902218	16465
4	68638	3569.952202719596	16466
4	68640	3570.018175140159	16467
4	68642	3570.037278268366	16468
4	68644	3570.200687701243	16469
4	68646	3570.320735820643	16470
4	68648	3570.443027811533	16471
4	68654	3571.258253796271	16472
4	68656	3571.272176011714	16473
4	68664	3572.117013542008	16474
4	68666	3572.216988838646	16475
4	68670	3572.432821667003	16476
4	68672	3572.438124368804	16477
4	68674	3572.438239269539	16478
4	68676	3572.518287645964	16479
4	68680	3572.768847505507	16480
4	68682	3572.899397672885	16481
4	68684	3572.994214362792	16482
4	68688	3573.203942970639	16483
4	68692	3573.397525164748	16484
4	68698	3573.655568454146	16485
4	68700	3573.703102297113	16486
4	68702	3573.703498255981	16487
4	68706	3573.713471754115	16488
4	68710	3573.98497173433	16489
4	68716	3574.127603590914	16490
4	68718	3574.20160953809	16491
4	68720	3574.271958373467	16492
4	68722	3574.288461446701	16493
4	68726	3574.467544041185	16494
4	68728	3574.515135122444	16495
4	68734	3574.745718986098	16496
4	68736	3574.800242169618	16497
4	68738	3574.826336641292	16498
4	68740	3574.893908426741	16499
4	68742	3574.984838229874	16500
4	68746	3575.015527630754	16501
4	68752	3575.365780012331	16502
4	68760	3575.602784888826	16503
4	68764	3575.673719852694	16504
4	68766	3575.712612118079	16505
4	68768	3575.716246890338	16506
4	68770	3575.749979089181	16507
4	68774	3576.334859391952	16508
4	68784	3576.872632413879	16509
4	68786	3576.900173526303	16510
4	68788	3576.925993337398	16511
4	68790	3576.975657615999	16512
4	68792	3577.007511627862	16513
4	68796	3577.078592096441	16514
4	68800	3577.225847649462	16515
4	68804	3577.364098017099	16516
4	68806	3577.380092114519	16517
4	68808	3577.39093607644	16518
4	68810	3577.469379657599	16519
4	68816	3577.808916430072	16520
4	68824	3578.323165258804	16521
4	68830	3578.660498613323	16522
4	68832	3578.696125349041	16523
4	68834	3578.772197029775	16524
4	68838	3578.920797367886	16525
4	68840	3579.199494736546	16526
4	68842	3579.227969714297	16527
4	68846	3579.641694767918	16528
4	68850	3579.719273395137	16529
4	68852	3579.829604944597	16530
4	68854	3579.890077213715	16531
4	68858	3580.723972274616	16532
4	68860	3580.773983906691	16533
4	68862	3580.800655757219	16534
4	68864	3580.843862300959	16535
4	68866	3580.882212511	16536
4	68870	3581.199537379413	16537
4	68874	3581.256146858423	16538
4	68876	3581.266233204464	16539
4	68878	3581.296077008414	16540
4	68880	3581.426045840176	16541
4	68882	3581.536634119866	16542
4	68892	3581.800604498898	16543
4	68894	3582.060906964424	16544
4	68896	3582.12287766578	16545
4	68898	3582.35794487488	16546
4	68900	3582.517997735047	16547
4	68902	3582.582755899122	16548
4	68904	3582.773960581859	16549
4	68916	3583.251118603258	16550
4	68918	3583.278014592292	16551
4	68920	3583.363643633153	16552
4	68922	3583.432804859778	16553
4	68928	3583.609922842347	16554
4	68932	3583.802230627175	16555
4	68936	3584.081248830098	16556
4	68938	3584.227206459586	16557
4	68942	3584.361883359326	16558
4	68946	3584.425520262197	16559
4	68952	3584.690555081822	16560
4	68956	3585.249404810812	16561
4	68964	3585.708956605026	16562
4	68966	3585.80488060783	16563
4	68968	3585.822002369854	16564
4	68970	3585.850692809871	16565
4	68972	3585.860607768089	16566
4	68976	3586.103166133482	16567
4	68978	3586.15198888707	16568
4	68990	3586.652916172239	16569
4	68998	3587.122168937046	16570
4	69002	3587.300650542434	16571
4	69006	3587.439353292238	16572
4	69008	3587.501239219297	16573
4	69014	3587.784093954461	16574
4	69022	3588.283108890448	16575
4	69028	3588.38193579868	16576
4	69032	3588.550848219862	16577
4	69036	3588.695395548436	16578
4	69052	3590.021423099585	16579
4	69054	3590.058030061814	16580
4	69058	3590.302965323374	16581
4	69062	3590.485835283419	16582
4	69066	3590.819761718388	16583
4	69070	3590.884353026941	16584
4	69074	3590.99949478714	16585
4	69076	3591.07545562457	16586
4	69078	3591.079939782646	16587
4	69086	3591.795959970745	16588
4	69094	3592.162212655571	16589
4	69096	3592.224439753484	16590
4	69098	3592.514436783378	16591
4	69112	3593.132948354951	16592
4	69120	3593.61646233446	16593
4	69128	3593.83432788338	16594
4	69130	3593.870282662942	16595
4	69136	3594.523334943756	16596
4	69140	3594.753958842607	16597
4	69142	3594.825066654021	16598
4	69144	3594.953051183011	16599
4	69146	3594.985205363851	16600
4	69152	3595.23603173804	16601
4	69156	3595.290294595254	16602
4	69170	3595.890769943195	16603
4	69174	3595.934066689404	16604
4	69178	3596.417550944344	16605
4	69180	3596.52204041435	16606
4	69184	3596.827403297422	16607
4	69186	3596.850933735647	16608
4	69196	3597.356661592162	16609
4	69198	3597.360906352863	16610
4	69200	3597.469710094492	16611
4	69206	3597.673408309478	16612
4	69208	3597.862036149968	16613
4	69210	3597.872945488474	16614
4	69212	3598.068874497148	16615
4	69216	3598.185094981883	16616
4	69220	3598.355152288604	16617
4	69226	3598.501015158648	16618
4	69228	3598.690016030182	16619
4	69230	3598.901281473583	16620
4	69236	3598.983170520908	16621
4	69240	3599.039059470038	16622
4	69242	3599.10196839204	16623
4	69244	3599.145864346812	16624
4	69250	3599.167367780109	16625
4	69252	3599.183146613114	16626
4	69258	3599.240124979939	16627
4	69260	3599.24100849163	16628
4	69266	3599.580408127422	16629

